src/TestNetwork/8500Node(OpenDSS)/LoadsAccumulated.dss
New Load.138236b0-t5138236b-l2673305 phases=1 Bus1=l2673305.2 kv=7.199557856794634 status=variable model=1 conn=wye kW=3.89  pf=0.97  Vminpu=0.88 
New Load.138237b0-t5138237b-l3048196 phases=1 Bus1=l3048196.2 kv=7.199557856794634 status=variable model=1 conn=wye kW=5.84  pf=0.97  Vminpu=0.88 
New Load.138258c0-t5138258c-l2991911 phases=1 Bus1=l2991911.3 kv=7.199557856794634 status=variable model=1 conn=wye kW=6.1  pf=0.97  Vminpu=0.88 
New Load.138259c0-t5138259c-l2973158 phases=1 Bus1=l2973158.3 kv=7.199557856794634 status=variable model=1 conn=wye kW=6.1  pf=0.97  Vminpu=0.88 
New Load.138260a0-t5138260a-l3048208 phases=1 Bus1=l3048208.1 kv=7.199557856794634 status=variable model=1 conn=wye kW=5.32  pf=0.97  Vminpu=0.88 
New Load.138262a0-t5138262a-l3029502 phases=1 Bus1=l3029502.1 kv=7.199557856794634 status=variable model=1 conn=wye kW=17.74  pf=0.97  Vminpu=0.88 
New Load.138264b0-t5138264b-l3104125 phases=1 Bus1=l3104125.2 kv=7.199557856794634 status=variable model=1 conn=wye kW=9.73  pf=0.97  Vminpu=0.88 
New Load.138265a0-t5138265a-l3160107 phases=1 Bus1=l3160107.1 kv=7.199557856794634 status=variable model=1 conn=wye kW=8.87  pf=0.97  Vminpu=0.88 
New Load.138294b0-t5138294b-l2785516 phases=1 Bus1=l2785516.2 kv=7.199557856794634 status=variable model=1 conn=wye kW=5.84  pf=0.97  Vminpu=0.88 
New Load.138313a0-t5138313a-l3141400 phases=1 Bus1=l3141400.1 kv=7.199557856794634 status=variable model=1 conn=wye kW=3.55  pf=0.97  Vminpu=0.88 
New Load.138342c0-t5138342c-l2897775 phases=1 Bus1=l2897775.3 kv=7.199557856794634 status=variable model=1 conn=wye kW=10.17  pf=0.97  Vminpu=0.88 
New Load.138343c0-t5138343c-l3010565 phases=1 Bus1=l3010565.3 kv=7.199557856794634 status=variable model=1 conn=wye kW=4.07  pf=0.97  Vminpu=0.88 
New Load.138346c0-t5138346c-l2916609 phases=1 Bus1=l2916609.3 kv=7.199557856794634 status=variable model=1 conn=wye kW=6.1  pf=0.97  Vminpu=0.88 
New Load.138371c0-t5138371c-l2879073 phases=1 Bus1=l2879073.3 kv=7.199557856794634 status=variable model=1 conn=wye kW=6.1  pf=0.97  Vminpu=0.88 
New Load.138372c0-t5138372c-l3104126 phases=1 Bus1=l3104126.3 kv=7.199557856794634 status=variable model=1 conn=wye kW=4.07  pf=0.97  Vminpu=0.88 
New Load.138373c0-t5138373c-l3029503 phases=1 Bus1=l3029503.3 kv=7.199557856794634 status=variable model=1 conn=wye kW=6.1  pf=0.97  Vminpu=0.88 
New Load.138374c0-t5138374c-l2691950 phases=1 Bus1=l2691950.3 kv=7.199557856794634 status=variable model=1 conn=wye kW=10.17  pf=0.97  Vminpu=0.88 
New Load.138379c0-t5138379c-l2691951 phases=1 Bus1=l2691951.3 kv=7.199557856794634 status=variable model=1 conn=wye kW=10.17  pf=0.97  Vminpu=0.88 
New Load.138380c0-t5138380c-l2879076 phases=1 Bus1=l2879076.3 kv=7.199557856794634 status=variable model=1 conn=wye kW=4.07  pf=0.97  Vminpu=0.88 
New Load.138404c0-t5138404c-l2841630 phases=1 Bus1=l2841630.3 kv=7.199557856794634 status=variable model=1 conn=wye kW=10.17  pf=0.97  Vminpu=0.88 
New Load.138405c0-t5138405c-l2841629 phases=1 Bus1=l2841629.3 kv=7.199557856794634 status=variable model=1 conn=wye kW=15.26  pf=0.97  Vminpu=0.88 
New Load.138412c0-t5138412c-l2785523 phases=1 Bus1=l2785523.3 kv=7.199557856794634 status=variable model=1 conn=wye kW=6.1  pf=0.97  Vminpu=0.88 
New Load.138413c0-t5138413c-l3216347 phases=1 Bus1=l3216347.3 kv=7.199557856794634 status=variable model=1 conn=wye kW=6.1  pf=0.97  Vminpu=0.88 
New Load.138416c0-t5138416c-l3141388 phases=1 Bus1=l3141388.3 kv=7.199557856794634 status=variable model=1 conn=wye kW=4.07  pf=0.97  Vminpu=0.88 
New Load.138464c0-t5138464c-l3066801 phases=1 Bus1=l3066801.3 kv=7.199557856794634 status=variable model=1 conn=wye kW=4.07  pf=0.97  Vminpu=0.88 
New Load.138465c0-t5138465c-l2879055 phases=1 Bus1=l2879055.3 kv=7.199557856794634 status=variable model=1 conn=wye kW=4.07  pf=0.97  Vminpu=0.88 
New Load.138466c0-t5138466c-l2973144 phases=1 Bus1=l2973144.3 kv=7.199557856794634 status=variable model=1 conn=wye kW=10.17  pf=0.97  Vminpu=0.88 
New Load.138469c0-t5138469c-l2785518 phases=1 Bus1=l2785518.3 kv=7.199557856794634 status=variable model=1 conn=wye kW=6.1  pf=0.97  Vminpu=0.88 
New Load.138470c0-t5138470c-l2766717 phases=1 Bus1=l2766717.3 kv=7.199557856794634 status=variable model=1 conn=wye kW=4.07  pf=0.97  Vminpu=0.88 
New Load.138472c0-t5138472c-l2673309 phases=1 Bus1=l2673309.3 kv=7.199557856794634 status=variable model=1 conn=wye kW=10.17  pf=0.97  Vminpu=0.88 
New Load.138560a0-t5138560a-l3104113 phases=1 Bus1=l3104113.1 kv=7.199557856794634 status=variable model=1 conn=wye kW=8.87  pf=0.97  Vminpu=0.88 
New Load.138561a0-t5138561a-l3104121 phases=1 Bus1=l3104121.1 kv=7.199557856794634 status=variable model=1 conn=wye kW=8.87  pf=0.97  Vminpu=0.88 
New Load.138562a0-t5138562a-l2673310 phases=1 Bus1=l2673310.1 kv=7.199557856794634 status=variable model=1 conn=wye kW=8.87  pf=0.97  Vminpu=0.88 
New Load.138563a0-t5138563a-l2916627 phases=1 Bus1=l2916627.1 kv=7.199557856794634 status=variable model=1 conn=wye kW=8.87  pf=0.97  Vminpu=0.88 
New Load.138564a0-t5138564a-l2804283 phases=1 Bus1=l2804283.1 kv=7.199557856794634 status=variable model=1 conn=wye kW=8.87  pf=0.97  Vminpu=0.88 
New Load.138565a0-t5138565a-l3104122 phases=1 Bus1=l3104122.1 kv=7.199557856794634 status=variable model=1 conn=wye kW=8.87  pf=0.97  Vminpu=0.88 
New Load.138566a0-t5138566a-l2785519 phases=1 Bus1=l2785519.1 kv=7.199557856794634 status=variable model=1 conn=wye kW=8.87  pf=0.97  Vminpu=0.88 
New Load.138567a0-t5138567a-l2748129 phases=1 Bus1=l2748129.1 kv=7.199557856794634 status=variable model=1 conn=wye kW=13.3  pf=0.97  Vminpu=0.88 
New Load.138569a0-t5138569a-l2973151 phases=1 Bus1=l2973151.1 kv=7.199557856794634 status=variable model=1 conn=wye kW=5.32  pf=0.97  Vminpu=0.88 
New Load.138570a0-t5138570a-l2748146 phases=1 Bus1=l2748146.1 kv=7.199557856794634 status=variable model=1 conn=wye kW=5.32  pf=0.97  Vminpu=0.88 
New Load.138571a0-t5138571a-l2991913 phases=1 Bus1=l2991913.1 kv=7.199557856794634 status=variable model=1 conn=wye kW=5.32  pf=0.97  Vminpu=0.88 
New Load.138573a0-t5138573a-l3235253 phases=1 Bus1=l3235253.1 kv=7.199557856794634 status=variable model=1 conn=wye kW=8.87  pf=0.97  Vminpu=0.88 
New Load.138574a0-t5138574a-l2991907 phases=1 Bus1=l2991907.1 kv=7.199557856794634 status=variable model=1 conn=wye kW=8.87  pf=0.97  Vminpu=0.88 
New Load.138581a0-t5138581a-l2879064 phases=1 Bus1=l2879064.1 kv=7.199557856794634 status=variable model=1 conn=wye kW=8.87  pf=0.97  Vminpu=0.88 
New Load.138585c0-t5138585c-l3197637 phases=1 Bus1=l3197637.3 kv=7.199557856794634 status=variable model=1 conn=wye kW=4.07  pf=0.97  Vminpu=0.88 
New Load.138586c0-t5138586c-l2860487 phases=1 Bus1=l2860487.3 kv=7.199557856794634 status=variable model=1 conn=wye kW=6.1  pf=0.97  Vminpu=0.88 
New Load.138641c0-t5138641c-l2841638 phases=1 Bus1=l2841638.3 kv=7.199557856794634 status=variable model=1 conn=wye kW=6.1  pf=0.97  Vminpu=0.88 
New Load.138642a0-t5138642a-l3235256 phases=1 Bus1=l3235256.1 kv=7.199557856794634 status=variable model=1 conn=wye kW=5.32  pf=0.97  Vminpu=0.88 
New Load.138644a0-t5138644a-l3197630 phases=1 Bus1=l3197630.1 kv=7.199557856794634 status=variable model=1 conn=wye kW=8.87  pf=0.97  Vminpu=0.88 
New Load.138645b0-t5138645b-l3104120 phases=1 Bus1=l3104120.2 kv=7.199557856794634 status=variable model=1 conn=wye kW=5.84  pf=0.97  Vminpu=0.88 
New Load.138646a0-t5138646a-l2804251 phases=1 Bus1=l2804251.1 kv=7.199557856794634 status=variable model=1 conn=wye kW=3.55  pf=0.97  Vminpu=0.88 
New Load.138647c0-t5138647c-l3254210 phases=1 Bus1=l3254210.3 kv=7.199557856794634 status=variable model=1 conn=wye kW=6.1  pf=0.97  Vminpu=0.88 
New Load.138649a0-t5138649a-l3048206 phases=1 Bus1=l3048206.1 kv=7.199557856794634 status=variable model=1 conn=wye kW=8.87  pf=0.97  Vminpu=0.88 
New Load.138650c0-t5138650c-l2710510 phases=1 Bus1=l2710510.3 kv=7.199557856794634 status=variable model=1 conn=wye kW=4.07  pf=0.97  Vminpu=0.88 
New Load.138651c0-t5138651c-l3197628 phases=1 Bus1=l3197628.3 kv=7.199557856794634 status=variable model=1 conn=wye kW=10.17  pf=0.97  Vminpu=0.88 
New Load.138652c0-t5138652c-l2766718 phases=1 Bus1=l2766718.3 kv=7.199557856794634 status=variable model=1 conn=wye kW=15.26  pf=0.97  Vminpu=0.88 
New Load.138655a0-t5138655a-l3010556 phases=1 Bus1=l3010556.1 kv=7.199557856794634 status=variable model=1 conn=wye kW=5.32  pf=0.97  Vminpu=0.88 
New Load.138679a0-t5138679a-l2710520 phases=1 Bus1=l2710520.1 kv=7.199557856794634 status=variable model=1 conn=wye kW=5.32  pf=0.97  Vminpu=0.88 
New Load.138680a0-t5138680a-l2710521 phases=1 Bus1=l2710521.1 kv=7.199557856794634 status=variable model=1 conn=wye kW=8.87  pf=0.97  Vminpu=0.88 
New Load.138684a0-t5138684a-l3085396 phases=1 Bus1=l3085396.1 kv=7.199557856794634 status=variable model=1 conn=wye kW=8.87  pf=0.97  Vminpu=0.88 
New Load.138685a0-t5138685a-l3122813 phases=1 Bus1=l3122813.1 kv=7.199557856794634 status=variable model=1 conn=wye kW=5.32  pf=0.97  Vminpu=0.88 
New Load.138716c0-t5138716c-l3254219 phases=1 Bus1=l3254219.3 kv=7.199557856794634 status=variable model=1 conn=wye kW=10.17  pf=0.97  Vminpu=0.88 
New Load.138717c0-t5138717c-l3254220 phases=1 Bus1=l3254220.3 kv=7.199557856794634 status=variable model=1 conn=wye kW=10.17  pf=0.97  Vminpu=0.88 
New Load.138718c0-t5138718c-l3104134 phases=1 Bus1=l3104134.3 kv=7.199557856794634 status=variable model=1 conn=wye kW=10.17  pf=0.97  Vminpu=0.88 
New Load.138719a0-t5138719a-l2860490 phases=1 Bus1=l2860490.1 kv=7.199557856794634 status=variable model=1 conn=wye kW=8.87  pf=0.97  Vminpu=0.88 
New Load.138720a0-t5138720a-l3254218 phases=1 Bus1=l3254218.1 kv=7.199557856794634 status=variable model=1 conn=wye kW=8.87  pf=0.97  Vminpu=0.88 
New Load.138751b0-t5138751b-l3066818 phases=1 Bus1=l3066818.2 kv=7.199557856794634 status=variable model=1 conn=wye kW=9.73  pf=0.97  Vminpu=0.88 
New Load.138752b0-t5138752b-l2785528 phases=1 Bus1=l2785528.2 kv=7.199557856794634 status=variable model=1 conn=wye kW=5.84  pf=0.97  Vminpu=0.88 
New Load.138753b0-t5138753b-l2748130 phases=1 Bus1=l2748130.2 kv=7.199557856794634 status=variable model=1 conn=wye kW=9.73  pf=0.97  Vminpu=0.88 
New Load.138754b0-t5138754b-l3254212 phases=1 Bus1=l3254212.2 kv=7.199557856794634 status=variable model=1 conn=wye kW=14.59  pf=0.97  Vminpu=0.88 
New Load.138755b0-t5138755b-l2785520 phases=1 Bus1=l2785520.2 kv=7.199557856794634 status=variable model=1 conn=wye kW=3.89  pf=0.97  Vminpu=0.88 
New Load.138769a0-t5138769a-l2729411 phases=1 Bus1=l2729411.1 kv=7.199557856794634 status=variable model=1 conn=wye kW=3.55  pf=0.97  Vminpu=0.88 
New Load.138770a0-t5138770a-l2897781 phases=1 Bus1=l2897781.1 kv=7.199557856794634 status=variable model=1 conn=wye kW=3.55  pf=0.97  Vminpu=0.88 
New Load.138771a0-t5138771a-l3197644 phases=1 Bus1=l3197644.1 kv=7.199557856794634 status=variable model=1 conn=wye kW=5.32  pf=0.97  Vminpu=0.88 
New Load.138776c0-t5138776c-l3010566 phases=1 Bus1=l3010566.3 kv=7.199557856794634 status=variable model=1 conn=wye kW=6.1  pf=0.97  Vminpu=0.88 
New Load.138796b0-t5138796b-l3236011 phases=1 Bus1=l3236011.2 kv=7.199557856794634 status=variable model=1 conn=wye kW=5.84  pf=0.97  Vminpu=0.88 
New Load.138797b0-t5138797b-l3198358 phases=1 Bus1=l3198358.2 kv=7.199557856794634 status=variable model=1 conn=wye kW=14.59  pf=0.97  Vminpu=0.88 
New Load.138798b0-t5138798b-l3104859 phases=1 Bus1=l3104859.2 kv=7.199557856794634 status=variable model=1 conn=wye kW=5.84  pf=0.97  Vminpu=0.88 
New Load.157715b0-t5157715b-l2936275 phases=1 Bus1=l2936275.2 kv=7.199557856794634 status=variable model=1 conn=wye kW=3.89  pf=0.97  Vminpu=0.88 
New Load.157716b0-t5157716b-l3179674 phases=1 Bus1=l3179674.2 kv=7.199557856794634 status=variable model=1 conn=wye kW=9.73  pf=0.97  Vminpu=0.88 
New Load.157717b0-t5157717b-l2748840 phases=1 Bus1=l2748840.2 kv=7.199557856794634 status=variable model=1 conn=wye kW=5.84  pf=0.97  Vminpu=0.88 
New Load.157718b0-t5157718b-l3142099 phases=1 Bus1=l3142099.2 kv=7.199557856794634 status=variable model=1 conn=wye kW=9.73  pf=0.97  Vminpu=0.88 
New Load.207286c0-t5207286c-l3011298 phases=1 Bus1=l3011298.3 kv=7.199557856794634 status=variable model=1 conn=wye kW=4.07  pf=0.97  Vminpu=0.88 
New Load.207287b0-t5207287b-l2711234 phases=1 Bus1=l2711234.2 kv=7.199557856794634 status=variable model=1 conn=wye kW=9.73  pf=0.97  Vminpu=0.88 
New Load.207288b0-t5207288b-l3198355 phases=1 Bus1=l3198355.2 kv=7.199557856794634 status=variable model=1 conn=wye kW=3.89  pf=0.97  Vminpu=0.88 
New Load.207290a0-t5207290a-l2879773 phases=1 Bus1=l2879773.1 kv=7.199557856794634 status=variable model=1 conn=wye kW=8.87  pf=0.97  Vminpu=0.88 
New Load.207291c0-t5207291c-l2786274 phases=1 Bus1=l2786274.3 kv=7.199557856794634 status=variable model=1 conn=wye kW=10.17  pf=0.97  Vminpu=0.88 
New Load.207292c0-t5207292c-l3179682 phases=1 Bus1=l3179682.3 kv=7.199557856794634 status=variable model=1 conn=wye kW=6.1  pf=0.97  Vminpu=0.88 
New Load.218472a0-t5218472a-l2936270 phases=1 Bus1=l2936270.1 kv=7.199557856794634 status=variable model=1 conn=wye kW=8.87  pf=0.97  Vminpu=0.88 
New Load.218473a0-t5218473a-l3086078 phases=1 Bus1=l3086078.1 kv=7.199557856794634 status=variable model=1 conn=wye kW=8.87  pf=0.97  Vminpu=0.88 
New Load.218474a0-t5218474a-l3217056 phases=1 Bus1=l3217056.1 kv=7.199557856794634 status=variable model=1 conn=wye kW=17.74  pf=0.97  Vminpu=0.88 
New Load.218475a0-t5218475a-l3217057 phases=1 Bus1=l3217057.1 kv=7.199557856794634 status=variable model=1 conn=wye kW=3.55  pf=0.97  Vminpu=0.88 
New Load.223655c0-t5223655c-l2936268 phases=1 Bus1=l2936268.3 kv=7.199557856794634 status=variable model=1 conn=wye kW=6.1  pf=0.97  Vminpu=0.88 
New Load.223658a0-t5223658a-l2823592 phases=1 Bus1=l2823592.1 kv=7.199557856794634 status=variable model=1 conn=wye kW=1.77  pf=0.97  Vminpu=0.88 
New Load.223660c0-t5223660c-l3160863 phases=1 Bus1=l3160863.3 kv=7.199557856794634 status=variable model=1 conn=wye kW=6.1  pf=0.97  Vminpu=0.88 
New Load.223661c0-t5223661c-l2730108 phases=1 Bus1=l2730108.3 kv=7.199557856794634 status=variable model=1 conn=wye kW=6.1  pf=0.97  Vminpu=0.88 
New Load.223662c0-t5223662c-l2786204 phases=1 Bus1=l2786204.3 kv=7.199557856794634 status=variable model=1 conn=wye kW=15.26  pf=0.97  Vminpu=0.88 
New Load.223663c0-t5223663c-l2936216 phases=1 Bus1=l2936216.3 kv=7.199557856794634 status=variable model=1 conn=wye kW=4.07  pf=0.97  Vminpu=0.88 
New Load.247036c0-t5247036c-l3029498 phases=1 Bus1=l3029498.3 kv=7.199557856794634 status=variable model=1 conn=wye kW=4.07  pf=0.97  Vminpu=0.88 
New Load.247056a0-t5247056a-l2991912 phases=1 Bus1=l2991912.1 kv=7.199557856794634 status=variable model=1 conn=wye kW=5.32  pf=0.97  Vminpu=0.88 
New Load.247057a0-t5247057a-l3104128 phases=1 Bus1=l3104128.1 kv=7.199557856794634 status=variable model=1 conn=wye kW=5.32  pf=0.97  Vminpu=0.88 
New Load.247058a0-t5247058a-l2673315 phases=1 Bus1=l2673315.1 kv=7.199557856794634 status=variable model=1 conn=wye kW=3.55  pf=0.97  Vminpu=0.88 
New Load.247059a0-t5247059a-l2766721 phases=1 Bus1=l2766721.1 kv=7.199557856794634 status=variable model=1 conn=wye kW=8.87  pf=0.97  Vminpu=0.88 
New Load.247060a0-t5247060a-l2991906 phases=1 Bus1=l2991906.1 kv=7.199557856794634 status=variable model=1 conn=wye kW=3.55  pf=0.97  Vminpu=0.88 
New Load.247061a0-t5247061a-l2879054 phases=1 Bus1=l2879054.1 kv=7.199557856794634 status=variable model=1 conn=wye kW=8.87  pf=0.97  Vminpu=0.88 
New Load.247084b0-t5247084b-l3254211 phases=1 Bus1=l3254211.2 kv=7.199557856794634 status=variable model=1 conn=wye kW=9.73  pf=0.97  Vminpu=0.88 
New Load.247100b0-t5247100b-l2729407 phases=1 Bus1=l2729407.2 kv=7.199557856794634 status=variable model=1 conn=wye kW=5.84  pf=0.97  Vminpu=0.88 
New Load.247105b0-t5247105b-l2691942 phases=1 Bus1=l2691942.2 kv=7.199557856794634 status=variable model=1 conn=wye kW=5.84  pf=0.97  Vminpu=0.88 
New Load.247122b0-t5247122b-l3197629 phases=1 Bus1=l3197629.2 kv=7.199557856794634 status=variable model=1 conn=wye kW=5.84  pf=0.97  Vminpu=0.88 
New Load.247126b0-t5247126b-l2879065 phases=1 Bus1=l2879065.2 kv=7.199557856794634 status=variable model=1 conn=wye kW=3.89  pf=0.97  Vminpu=0.88 
New Load.247160b0-t5247160b-l0247160 phases=1 Bus1=l0247160.2 kv=7.199557856794634 status=variable model=1 conn=wye kW=5.84  pf=0.97  Vminpu=0.88 
New Load.247162b0-t5247162b-l0247162 phases=1 Bus1=l0247162.2 kv=7.199557856794634 status=variable model=1 conn=wye kW=5.84  pf=0.97  Vminpu=0.88 
New Load.247164b0-t5247164b-l2766732 phases=1 Bus1=l2766732.2 kv=7.199557856794634 status=variable model=1 conn=wye kW=3.89  pf=0.97  Vminpu=0.88 
New Load.247170b0-t5247170b-l2897784 phases=1 Bus1=l2897784.2 kv=7.199557856794634 status=variable model=1 conn=wye kW=14.59  pf=0.97  Vminpu=0.88 
New Load.247171b0-t5247171b-l0247171 phases=1 Bus1=l0247171.2 kv=7.199557856794634 status=variable model=1 conn=wye kW=5.84  pf=0.97  Vminpu=0.88 
New Load.247184c0-t5247184c-l2936279 phases=1 Bus1=l2936279.3 kv=7.199557856794634 status=variable model=1 conn=wye kW=10.17  pf=0.97  Vminpu=0.88 
New Load.247185b0-t5247185b-l3179678 phases=1 Bus1=l3179678.2 kv=7.199557856794634 status=variable model=1 conn=wye kW=5.84  pf=0.97  Vminpu=0.88 
New Load.251828b0-t5251828b-l3179650 phases=1 Bus1=l3179650.2 kv=7.199557856794634 status=variable model=1 conn=wye kW=5.84  pf=0.97  Vminpu=0.88 
New Load.251855c0-t5251855c-l2730107 phases=1 Bus1=l2730107.3 kv=7.199557856794634 status=variable model=1 conn=wye kW=10.17  pf=0.97  Vminpu=0.88 
New Load.251856c0-t5251856c-l3048888 phases=1 Bus1=l3048888.3 kv=7.199557856794634 status=variable model=1 conn=wye kW=6.1  pf=0.97  Vminpu=0.88 
New Load.251857c0-t5251857c-l3064514 phases=1 Bus1=l3064514.3 kv=7.199557856794634 status=variable model=1 conn=wye kW=6.1  pf=0.97  Vminpu=0.88 
New Load.251858c0-t5251858c-l2861158 phases=1 Bus1=l2861158.3 kv=7.199557856794634 status=variable model=1 conn=wye kW=10.17  pf=0.97  Vminpu=0.88 
New Load.251859c0-t5251859c-l2952007 phases=1 Bus1=l2952007.3 kv=7.199557856794634 status=variable model=1 conn=wye kW=10.17  pf=0.97  Vminpu=0.88 
New Load.251862c0-t5251862c-l3254873 phases=1 Bus1=l3254873.3 kv=7.199557856794634 status=variable model=1 conn=wye kW=6.1  pf=0.97  Vminpu=0.88 
New Load.251863c0-t5251863c-l2745811 phases=1 Bus1=l2745811.3 kv=7.199557856794634 status=variable model=1 conn=wye kW=10.17  pf=0.97  Vminpu=0.88 
New Load.251865c0-t5251865c-l3142050 phases=1 Bus1=l3142050.3 kv=7.199557856794634 status=variable model=1 conn=wye kW=6.1  pf=0.97  Vminpu=0.88 
New Load.251867c0-t5251867c-l2861157 phases=1 Bus1=l2861157.3 kv=7.199557856794634 status=variable model=1 conn=wye kW=10.17  pf=0.97  Vminpu=0.88 
New Load.260457b0-t5260457b-l3086079 phases=1 Bus1=l3086079.2 kv=7.199557856794634 status=variable model=1 conn=wye kW=3.89  pf=0.97  Vminpu=0.88 
New Load.260458b0-t5260458b-l2936276 phases=1 Bus1=l2936276.2 kv=7.199557856794634 status=variable model=1 conn=wye kW=3.89  pf=0.97  Vminpu=0.88 
New Load.260461b0-t5260461b-l2861223 phases=1 Bus1=l2861223.2 kv=7.199557856794634 status=variable model=1 conn=wye kW=9.73  pf=0.97  Vminpu=0.88 
New Load.260463b0-t5260463b-l3086075 phases=1 Bus1=l3086075.2 kv=7.199557856794634 status=variable model=1 conn=wye kW=5.84  pf=0.97  Vminpu=0.88 
New Load.260464a0-t5260464a-l2730187 phases=1 Bus1=l2730187.1 kv=7.199557856794634 status=variable model=1 conn=wye kW=13.3  pf=0.97  Vminpu=0.88 
New Load.260467a0-t5260467a-l3104856 phases=1 Bus1=l3104856.1 kv=7.199557856794634 status=variable model=1 conn=wye kW=5.32  pf=0.97  Vminpu=0.88 
New Load.260473a0-t5260473a-l2861222 phases=1 Bus1=l2861222.1 kv=7.199557856794634 status=variable model=1 conn=wye kW=13.3  pf=0.97  Vminpu=0.88 
New Load.260474a0-t5260474a-l2917330 phases=1 Bus1=l2917330.1 kv=7.199557856794634 status=variable model=1 conn=wye kW=8.87  pf=0.97  Vminpu=0.88 
New Load.260475a0-t5260475a-l2879794 phases=1 Bus1=l2879794.1 kv=7.199557856794634 status=variable model=1 conn=wye kW=13.3  pf=0.97  Vminpu=0.88 
New Load.260476a0-t5260476a-l2936271 phases=1 Bus1=l2936271.1 kv=7.199557856794634 status=variable model=1 conn=wye kW=5.32  pf=0.97  Vminpu=0.88 
New Load.260479a0-t5260479a-l2955074 phases=1 Bus1=l2955074.1 kv=7.199557856794634 status=variable model=1 conn=wye kW=13.3  pf=0.97  Vminpu=0.88 
New Load.260480c0-t5260480c-l3030199 phases=1 Bus1=l3030199.3 kv=7.199557856794634 status=variable model=1 conn=wye kW=10.17  pf=0.97  Vminpu=0.88 
New Load.260481c0-t5260481c-l2730163 phases=1 Bus1=l2730163.3 kv=7.199557856794634 status=variable model=1 conn=wye kW=10.17  pf=0.97  Vminpu=0.88 
New Load.260484a0-t5260484a-l2992624 phases=1 Bus1=l2992624.1 kv=7.199557856794634 status=variable model=1 conn=wye kW=5.32  pf=0.97  Vminpu=0.88 
New Load.260487a0-t5260487a-l2692654 phases=1 Bus1=l2692654.1 kv=7.199557856794634 status=variable model=1 conn=wye kW=5.32  pf=0.97  Vminpu=0.88 
New Load.260488a0-t5260488a-l2842379 phases=1 Bus1=l2842379.1 kv=7.199557856794634 status=variable model=1 conn=wye kW=13.3  pf=0.97  Vminpu=0.88 
New Load.260491c0-t5260491c-l2805031 phases=1 Bus1=l2805031.3 kv=7.199557856794634 status=variable model=1 conn=wye kW=15.26  pf=0.97  Vminpu=0.88 
New Load.260494b0-t5260494b-l3068944 phases=1 Bus1=l3068944.2 kv=7.199557856794634 status=variable model=1 conn=wye kW=14.59  pf=0.97  Vminpu=0.88 
New Load.260495b0-t5260495b-l2767407 phases=1 Bus1=l2767407.2 kv=7.199557856794634 status=variable model=1 conn=wye kW=3.89  pf=0.97  Vminpu=0.88 
New Load.260496b0-t5260496b-l2879767 phases=1 Bus1=l2879767.2 kv=7.199557856794634 status=variable model=1 conn=wye kW=3.89  pf=0.97  Vminpu=0.88 
New Load.260500b0-t5260500b-l2711224 phases=1 Bus1=l2711224.2 kv=7.199557856794634 status=variable model=1 conn=wye kW=3.89  pf=0.97  Vminpu=0.88 
New Load.260501b0-t5260501b-l3142098 phases=1 Bus1=l3142098.2 kv=7.199557856794634 status=variable model=1 conn=wye kW=9.73  pf=0.97  Vminpu=0.88 
New Load.260502b0-t5260502b-l2748839 phases=1 Bus1=l2748839.2 kv=7.199557856794634 status=variable model=1 conn=wye kW=3.89  pf=0.97  Vminpu=0.88 
New Load.260503b0-t5260503b-l2917310 phases=1 Bus1=l2917310.2 kv=7.199557856794634 status=variable model=1 conn=wye kW=5.84  pf=0.97  Vminpu=0.88 
New Load.260505c0-t5260505c-l2861218 phases=1 Bus1=l2861218.3 kv=7.199557856794634 status=variable model=1 conn=wye kW=10.17  pf=0.97  Vminpu=0.88 
New Load.260508a0-t5260508a-l2955081 phases=1 Bus1=l2955081.1 kv=7.199557856794634 status=variable model=1 conn=wye kW=5.32  pf=0.97  Vminpu=0.88 
New Load.260511c0-t5260511c-l3160878 phases=1 Bus1=l3160878.3 kv=7.199557856794634 status=variable model=1 conn=wye kW=6.1  pf=0.97  Vminpu=0.88 
New Load.260513c0-t5260513c-l2917336 phases=1 Bus1=l2917336.3 kv=7.199557856794634 status=variable model=1 conn=wye kW=6.1  pf=0.97  Vminpu=0.88 
New Load.260514c0-t5260514c-l2674047 phases=1 Bus1=l2674047.3 kv=7.199557856794634 status=variable model=1 conn=wye kW=6.1  pf=0.97  Vminpu=0.88 
New Load.260515a0-t5260515a-l3160865 phases=1 Bus1=l3160865.1 kv=7.199557856794634 status=variable model=1 conn=wye kW=8.87  pf=0.97  Vminpu=0.88 
New Load.260517c0-t5260517c-l2767408 phases=1 Bus1=l2767408.3 kv=7.199557856794634 status=variable model=1 conn=wye kW=6.1  pf=0.97  Vminpu=0.88 
New Load.260518c0-t5260518c-l3104853 phases=1 Bus1=l3104853.3 kv=7.199557856794634 status=variable model=1 conn=wye kW=10.17  pf=0.97  Vminpu=0.88 
New Load.260520b0-t5260520b-l3254915 phases=1 Bus1=l3254915.2 kv=7.199557856794634 status=variable model=1 conn=wye kW=1.95  pf=0.97  Vminpu=0.88 
New Load.260521b0-t5260521b-l3048963 phases=1 Bus1=l3048963.2 kv=7.199557856794634 status=variable model=1 conn=wye kW=5.84  pf=0.97  Vminpu=0.88 
New Load.260527b0-t5260527b-l2711226 phases=1 Bus1=l2711226.2 kv=7.199557856794634 status=variable model=1 conn=wye kW=9.73  pf=0.97  Vminpu=0.88 
New Load.260528c0-t5260528c-l3217052 phases=1 Bus1=l3217052.3 kv=7.199557856794634 status=variable model=1 conn=wye kW=10.17  pf=0.97  Vminpu=0.88 
New Load.260529c0-t5260529c-l3217053 phases=1 Bus1=l3217053.3 kv=7.199557856794634 status=variable model=1 conn=wye kW=4.07  pf=0.97  Vminpu=0.88 
New Load.260532c0-t5260532c-l3086074 phases=1 Bus1=l3086074.3 kv=7.199557856794634 status=variable model=1 conn=wye kW=6.1  pf=0.97  Vminpu=0.88 
New Load.260535c0-t5260535c-l3067507 phases=1 Bus1=l3067507.3 kv=7.199557856794634 status=variable model=1 conn=wye kW=15.26  pf=0.97  Vminpu=0.88 
New Load.260542a0-t5260542a-l2955078 phases=1 Bus1=l2955078.1 kv=7.199557856794634 status=variable model=1 conn=wye kW=8.87  pf=0.97  Vminpu=0.88 
New Load.260543c0-t5260543c-l2955077 phases=1 Bus1=l2955077.3 kv=7.199557856794634 status=variable model=1 conn=wye kW=10.17  pf=0.97  Vminpu=0.88 
New Load.260551c0-t5260551c-l3160872 phases=1 Bus1=l3160872.3 kv=7.199557856794634 status=variable model=1 conn=wye kW=15.26  pf=0.97  Vminpu=0.88 
New Load.260552a0-t5260552a-l3198348 phases=1 Bus1=l3198348.1 kv=7.199557856794634 status=variable model=1 conn=wye kW=17.74  pf=0.97  Vminpu=0.88 
New Load.260553c0-t5260553c-l2711225 phases=1 Bus1=l2711225.3 kv=7.199557856794634 status=variable model=1 conn=wye kW=6.1  pf=0.97  Vminpu=0.88 
New Load.260554c0-t5260554c-l3030200 phases=1 Bus1=l3030200.3 kv=7.199557856794634 status=variable model=1 conn=wye kW=6.1  pf=0.97  Vminpu=0.88 
New Load.260555a0-t5260555a-l3048962 phases=1 Bus1=l3048962.1 kv=7.199557856794634 status=variable model=1 conn=wye kW=13.3  pf=0.97  Vminpu=0.88 
New Load.260558c0-t5260558c-l3160861 phases=1 Bus1=l3160861.3 kv=7.199557856794634 status=variable model=1 conn=wye kW=4.07  pf=0.97  Vminpu=0.88 
New Load.260561c0-t5260561c-l3104850 phases=1 Bus1=l3104850.3 kv=7.199557856794634 status=variable model=1 conn=wye kW=10.17  pf=0.97  Vminpu=0.88 
New Load.260562a0-t5260562a-l3251799 phases=1 Bus1=l3251799.1 kv=7.199557856794634 status=variable model=1 conn=wye kW=13.3  pf=0.97  Vminpu=0.88 
New Load.260567c0-t5260567c-l2936211 phases=1 Bus1=l2936211.3 kv=7.199557856794634 status=variable model=1 conn=wye kW=6.1  pf=0.97  Vminpu=0.88 
New Load.260568c0-t5260568c-l2842329 phases=1 Bus1=l2842329.3 kv=7.199557856794634 status=variable model=1 conn=wye kW=6.1  pf=0.97  Vminpu=0.88 
New Load.260569c0-t5260569c-l3104796 phases=1 Bus1=l3104796.3 kv=7.199557856794634 status=variable model=1 conn=wye kW=10.17  pf=0.97  Vminpu=0.88 
New Load.260572c0-t5260572c-l3236004 phases=1 Bus1=l3236004.3 kv=7.199557856794634 status=variable model=1 conn=wye kW=6.1  pf=0.97  Vminpu=0.88 
New Load.260573c0-t5260573c-l3160896 phases=1 Bus1=l3160896.3 kv=7.199557856794634 status=variable model=1 conn=wye kW=6.1  pf=0.97  Vminpu=0.88 
New Load.260574c0-t5260574c-l3123452 phases=1 Bus1=l3123452.3 kv=7.199557856794634 status=variable model=1 conn=wye kW=10.17  pf=0.97  Vminpu=0.88 
New Load.260575b0-t5260575b-l3254869 phases=1 Bus1=l3254869.2 kv=7.199557856794634 status=variable model=1 conn=wye kW=5.84  pf=0.97  Vminpu=0.88 
New Load.260576c0-t5260576c-l3030126 phases=1 Bus1=l3030126.3 kv=7.199557856794634 status=variable model=1 conn=wye kW=10.17  pf=0.97  Vminpu=0.88 
New Load.260577c0-t5260577c-l2767341 phases=1 Bus1=l2767341.3 kv=7.199557856794634 status=variable model=1 conn=wye kW=15.26  pf=0.97  Vminpu=0.88 
New Load.260581c0-t5260581c-l3254870 phases=1 Bus1=l3254870.3 kv=7.199557856794634 status=variable model=1 conn=wye kW=10.17  pf=0.97  Vminpu=0.88 
New Load.260586b0-t5260586b-l3048887 phases=1 Bus1=l3048887.2 kv=7.199557856794634 status=variable model=1 conn=wye kW=14.59  pf=0.97  Vminpu=0.88 
New Load.260589b0-t5260589b-l2955005 phases=1 Bus1=l2955005.2 kv=7.199557856794634 status=variable model=1 conn=wye kW=5.84  pf=0.97  Vminpu=0.88 
...