src/TestNetwork/8500Node(OpenDSS)/IEEE8500_EXP_POWERS.CSV
Element, Terminal, P(kW), Q(kvar),  P_Normal, Q_Normal, P_Emergency, Q_Emergency
"Line.HVMV_SUB_CONNECTOR",   1,     11698.3,       466.5,      3001.8,       119.7,         0.0,         0.0
"Line.HVMV_SUB_CONNECTOR",   2,    -11698.3,      -466.5
"Line.LN5502549-1"      ,   1,        13.6,         3.4,         0.0,         0.0,         0.0,         0.0
"Line.LN5502549-1"      ,   2,       -13.6,        -3.4
"Line.LN6259988-1"      ,   1,        10.2,         2.5,         0.0,         0.0,         0.0,         0.0
"Line.LN6259988-1"      ,   2,       -10.2,        -2.5
"Line.LN6077796-1"      ,   1,        11.7,         2.9,         0.0,         0.0,         0.0,         0.0
"Line.LN6077796-1"      ,   2,       -11.7,        -2.9
"Line.LN5835135-2"      ,   1,       113.2,        28.0,         0.0,         0.0,         0.0,         0.0
"Line.LN5835135-2"      ,   2,      -113.2,       -28.0
"Line.LN5896826-1"      ,   1,         5.8,         1.4,         0.0,         0.0,         0.0,         0.0
"Line.LN5896826-1"      ,   2,        -5.8,        -1.5
"Line.LN5714038-1"      ,   1,        15.6,         3.8,         0.0,         0.0,         0.0,         0.0
"Line.LN5714038-1"      ,   2,       -15.6,        -3.8
"Line.LN5653457-1"      ,   1,       544.3,       135.4,         0.0,         0.0,         0.0,         0.0
"Line.LN5653457-1"      ,   2,      -544.0,      -135.4
"Line.LN5835173-1"      ,   1,       971.5,       244.9,         0.0,         0.0,         0.0,         0.0
"Line.LN5835173-1"      ,   2,      -971.3,      -244.8
"Line.LN6321415-1"      ,   1,         9.7,         2.4,         0.0,         0.0,         0.0,         0.0
"Line.LN6321415-1"      ,   2,        -9.7,        -2.4
"Line.LN5565092-1"      ,   1,        15.3,         3.8,         0.0,         0.0,         0.0,         0.0
"Line.LN5565092-1"      ,   2,       -15.3,        -3.8
"Line.LN6073648-1"      ,   1,        21.3,         5.3,         0.0,         0.0,         0.0,         0.0
"Line.LN6073648-1"      ,   2,       -21.3,        -5.3
"Line.LN5774457-1"      ,   1,       536.9,       133.1,         0.0,         0.0,         0.0,         0.0
"Line.LN5774457-1"      ,   2,      -536.8,      -133.0
"Line.LN5534966-3"      ,   1,        77.2,        19.3,         0.0,         0.0,         0.0,         0.0
"Line.LN5534966-3"      ,   2,       -77.2,       -19.3
"Line.LN5859996-1"      ,   1,        19.5,         4.9,         0.0,         0.0,         0.0,         0.0
"Line.LN5859996-1"      ,   2,       -19.5,        -4.9
"Line.LN6138610-2"      ,   1,      2208.5,       559.8,         0.0,         0.0,         0.0,         0.0
"Line.LN6138610-2"      ,   2,     -2207.2,      -559.3
"Line.LN6258435-3"      ,   1,        17.7,         4.4,         0.0,         0.0,         0.0,         0.0
"Line.LN6258435-3"      ,   2,       -17.7,        -4.4
"Line.LN5804790-1"      ,   1,        10.2,         2.5,         0.0,         0.0,         0.0,         0.0
"Line.LN5804790-1"      ,   2,       -10.2,        -2.5
"Line.LN6900591-14"     ,   1,        31.9,         8.0,         0.0,         0.0,         0.0,         0.0
"Line.LN6900591-14"     ,   2,       -31.9,        -8.0
"Line.LN6409873-1"      ,   1,        75.1,        18.2,         0.0,         0.0,         0.0,         0.0
"Line.LN6409873-1"      ,   2,       -75.1,       -18.2
"Line.LN6014135-1"      ,   1,        66.6,        16.6,         0.0,         0.0,         0.0,         0.0
"Line.LN6014135-1"      ,   2,       -66.6,       -16.6
"Line.LN6077784-1"      ,   1,      1189.8,       297.6,         0.0,         0.0,         0.0,         0.0
"Line.LN6077784-1"      ,   2,     -1189.5,      -297.3
"Line.LN5744338-1"      ,   1,       182.8,        45.7,         0.0,         0.0,         0.0,         0.0
"Line.LN5744338-1"      ,   2,      -182.7,       -45.7
"Line.LN6991381-4"      ,   1,        35.5,         8.9,         0.0,         0.0,         0.0,         0.0
"Line.LN6991381-4"      ,   2,       -35.5,        -8.9
"Line.LN5774480-1"      ,   1,       220.7,        55.2,         0.0,         0.0,         0.0,         0.0
"Line.LN5774480-1"      ,   2,      -220.4,       -55.0
"Line.LN5986938-3"      ,   1,        37.3,         9.2,         0.0,         0.0,         0.0,         0.0
"Line.LN5986938-3"      ,   2,       -37.3,        -9.2
"Line.LN5894230-1"      ,   1,        10.2,         2.5,         0.0,         0.0,         0.0,         0.0
"Line.LN5894230-1"      ,   2,       -10.2,        -2.5
"Line.LN5683858-3"      ,   1,        67.3,        16.8,         0.0,         0.0,         0.0,         0.0
"Line.LN5683858-3"      ,   2,       -67.3,       -16.8
"Line.LN5920279-5"      ,   1,      6198.4,       612.7,         0.0,         0.0,         0.0,         0.0
"Line.LN5920279-5"      ,   2,     -6197.4,      -610.5
"Line.LN6439600-1"      ,   1,         8.9,         2.2,         0.0,         0.0,         0.0,         0.0
"Line.LN6439600-1"      ,   2,        -8.9,        -2.2
"Line.LN5589097-1"      ,   1,        13.3,         3.3,         0.0,         0.0,         0.0,         0.0
"Line.LN5589097-1"      ,   2,       -13.3,        -3.3
"Line.LN5651975-1"      ,   1,       767.9,       191.2,         0.0,         0.0,         0.0,         0.0
"Line.LN5651975-1"      ,   2,      -767.7,      -191.1
"Line.LN5865236-1"      ,   1,        17.7,         4.4,         0.0,         0.0,         0.0,         0.0
"Line.LN5865236-1"      ,   2,       -17.7,        -4.4
"Line.LN5593232-1"      ,   1,        10.2,         2.5,         0.0,         0.0,         0.0,         0.0
"Line.LN5593232-1"      ,   2,       -10.2,        -2.5
"Line.LN5740283-1"      ,   1,        12.2,         3.0,         0.0,         0.0,         0.0,         0.0
"Line.LN5740283-1"      ,   2,       -12.2,        -3.0
"Line.LN6106559-1"      ,   1,        27.3,         6.8,         0.0,         0.0,         0.0,         0.0
"Line.LN6106559-1"      ,   2,       -27.3,        -6.8
"Line.LN5714056-3"      ,   1,       612.2,       151.8,         0.0,         0.0,         0.0,         0.0
"Line.LN5714056-3"      ,   2,      -611.5,      -151.6
"Line.LN5985355-3"      ,   1,       386.8,        97.0,         0.0,         0.0,         0.0,         0.0
"Line.LN5985355-3"      ,   2,      -386.4,       -96.8
"Line.LN5531956-1"      ,   1,         8.9,         2.2,         0.0,         0.0,         0.0,         0.0
"Line.LN5531956-1"      ,   2,        -8.9,        -2.2
"Line.LN5650048-1"      ,   1,         9.7,         2.4,         0.0,         0.0,         0.0,         0.0
"Line.LN5650048-1"      ,   2,        -9.7,        -2.4
"Line.LN6290203-1"      ,   1,       801.7,       201.2,         0.0,         0.0,         0.0,         0.0
"Line.LN6290203-1"      ,   2,      -801.4,      -201.1
"Line.LN6134414-1"      ,   1,        20.3,         5.1,         0.0,         0.0,         0.0,         0.0
"Line.LN6134414-1"      ,   2,       -20.3,        -5.1
"Line.LN6259998-2"      ,   1,        12.2,         3.0,         0.0,         0.0,         0.0,         0.0
"Line.LN6259998-2"      ,   2,       -12.2,        -3.0
"Line.LN6078767-1"      ,   1,      2778.5,      -225.1,         0.0,         0.0,         0.0,         0.0
"Line.LN6078767-1"      ,   2,     -2778.3,       225.6
"Line.LN6017300-1"      ,   1,         6.1,         1.5,         0.0,         0.0,         0.0,         0.0
"Line.LN6017300-1"      ,   2,        -6.1,        -1.5
"Line.LN8979257-2"      ,   1,        28.8,         7.0,         0.0,         0.0,         0.0,         0.0
"Line.LN8979257-2"      ,   2,       -28.8,        -7.1
"Line.LN81048109-1"     ,   1,        29.2,         7.2,         0.0,         0.0,         0.0,         0.0
"Line.LN81048109-1"     ,   2,       -29.2,        -7.2
"Line.293471"           ,   1,        28.8,         7.2,         0.0,         0.0,         0.0,         0.0
"Line.293471"           ,   2,       -28.8,        -7.2
"Line.LN5534965-2"      ,   1,         8.9,         2.2,         0.0,         0.0,         0.0,         0.0
"Line.LN5534965-2"      ,   2,        -8.9,        -2.2
"Line.LN5655683-1"      ,   1,       139.9,        34.8,         0.0,         0.0,         0.0,         0.0
"Line.LN5655683-1"      ,   2,      -139.9,       -34.8
"Line.LN5686247-1"      ,   1,        13.6,         3.4,         0.0,         0.0,         0.0,         0.0
"Line.LN5686247-1"      ,   2,       -13.6,        -3.4
"Line.LN6048642-1"      ,   1,         0.0,        -0.0,         0.0,         0.0,         0.0,         0.0
"Line.LN6048642-1"      ,   2,         0.0,         0.0
"Line.LN5928544-3"      ,   1,       101.8,        25.4,         0.0,         0.0,         0.0,         0.0
"Line.LN5928544-3"      ,   2,      -101.8,       -25.4
"Line.LN6108172-1"      ,   1,        17.7,         4.4,         0.0,         0.0,         0.0,         0.0
"Line.LN6108172-1"      ,   2,       -17.7,        -4.4
"Line.LN5532754-1"      ,   1,       692.9,       172.1,         0.0,         0.0,         0.0,         0.0
"Line.LN5532754-1"      ,   2,      -692.8,      -172.1
"Line.LN5591834-1"      ,   1,        26.4,         6.6,         0.0,         0.0,         0.0,         0.0
"Line.LN5591834-1"      ,   2,       -26.4,        -6.6
"Line.LN6347196-2"      ,   1,       441.9,       109.4,         0.0,         0.0,         0.0,         0.0
"Line.LN6347196-2"      ,   2,      -441.8,      -109.4
"Line.LN5532741-1"      ,   1,        62.1,        15.4,         0.0,         0.0,         0.0,         0.0
"Line.LN5532741-1"      ,   2,       -62.1,       -15.4
"Line.LN5804803-1"      ,   1,         5.3,         1.3,         0.0,         0.0,         0.0,         0.0
"Line.LN5804803-1"      ,   2,        -5.3,        -1.3
"Line.LN6169248-1"      ,   1,      1625.5,       411.7,         0.0,         0.0,         0.0,         0.0
"Line.LN6169248-1"      ,   2,     -1624.6,      -410.8
"Line.LN5532786-2"      ,   1,        15.6,         3.9,         0.0,         0.0,         0.0,         0.0
"Line.LN5532786-2"      ,   2,       -15.6,        -3.9
"Line.LN5744339-1"      ,   1,       112.8,        28.1,         0.0,         0.0,         0.0,         0.0
"Line.LN5744339-1"      ,   2,      -112.7,       -28.1
"Line.LN5531255-3"      ,   1,       116.4,        29.0,         0.0,         0.0,         0.0,         0.0
"Line.LN5531255-3"      ,   2,      -116.4,       -29.0
"Line.LN5926308-2"      ,   1,       751.8,       188.0,         0.0,         0.0,         0.0,         0.0
"Line.LN5926308-2"      ,   2,      -751.5,      -187.9
"Line.LN5683856-3"      ,   1,         8.9,         2.2,         0.0,         0.0,         0.0,         0.0
"Line.LN5683856-3"      ,   2,        -8.9,        -2.2
"Line.LN6171502-1"      ,   1,        14.2,         3.5,         0.0,         0.0,         0.0,         0.0
"Line.LN6171502-1"      ,   2,       -14.2,        -3.5
"Line.LN5593228-1"      ,   1,         9.7,         2.4,         0.0,         0.0,         0.0,         0.0
"Line.LN5593228-1"      ,   2,        -9.7,        -2.4
"Line.LN6380800-1"      ,   1,         9.7,         2.4,         0.0,         0.0,         0.0,         0.0
"Line.LN6380800-1"      ,   2,        -9.7,        -2.4
"Line.LN6199525-2"      ,   1,         3.6,         0.9,         0.0,         0.0,         0.0,         0.0
"Line.LN6199525-2"      ,   2,        -3.6,        -0.9
"Line.LN5772710-2"      ,   1,        71.0,        17.7,         0.0,         0.0,         0.0,         0.0
"Line.LN5772710-2"      ,   2,       -71.0,       -17.7
"Line.LN8961760-1"      ,   1,        48.5,        11.9,         0.0,         0.0,         0.0,         0.0
"Line.LN8961760-1"      ,   2,       -48.5,       -11.9
"Line.LN6047556-1"      ,   1,        10.2,         2.5,         0.0,         0.0,         0.0,         0.0
"Line.LN6047556-1"      ,   2,       -10.2,        -2.5
"Line.LN6138603-1"      ,   1,        15.6,         3.8,         0.0,         0.0,         0.0,         0.0
"Line.LN6138603-1"      ,   2,       -15.6,        -3.9
"Line.LN6108139-1"      ,   1,         5.8,         1.5,         0.0,         0.0,         0.0,         0.0
"Line.LN6108139-1"      ,   2,        -5.8,        -1.5
"Line.LN6388581-2"      ,   1,         5.3,         1.3,         0.0,         0.0,         0.0,         0.0
"Line.LN6388581-2"      ,   2,        -5.3,        -1.3
"Line.LN5774460-1"      ,   1,         5.3,         1.3,         0.0,         0.0,         0.0,         0.0
"Line.LN5774460-1"      ,   2,        -5.3,        -1.3
"Line.LN5624387-1"      ,   1,        15.3,         3.8,         0.0,         0.0,         0.0,         0.0
"Line.LN5624387-1"      ,   2,       -15.3,        -3.8
"Line.LN6137087-1"      ,   1,        81.4,        20.3,         0.0,         0.0,         0.0,         0.0
"Line.LN6137087-1"      ,   2,       -81.4,       -20.3
"Line.LN6077809-1"      ,   1,       101.7,        25.4,         0.0,         0.0,         0.0,         0.0
"Line.LN6077809-1"      ,   2,      -101.7,       -25.4
"Line.LN6440079-1"      ,   1,        26.4,         6.6,         0.0,         0.0,         0.0,         0.0
"Line.LN6440079-1"      ,   2,       -26.4,        -6.6
"Line.LN5804794-1"      ,   1,        80.8,        20.2,         0.0,         0.0,         0.0,         0.0
"Line.LN5804794-1"      ,   2,       -80.8,       -20.2
"Line.LN5654484-1"      ,   1,        10.2,         2.5,         0.0,         0.0,         0.0,         0.0
"Line.LN5654484-1"      ,   2,       -10.2,        -2.5
"Line.LN5774465-1"      ,   1,        17.7,         4.3,         0.0,         0.0,         0.0,         0.0
"Line.LN5774465-1"      ,   2,       -17.7,        -4.3
"Line.LN5473349-1"      ,   1,      5917.2,       476.5,         0.0,         0.0,         0.0,         0.0
"Line.LN5473349-1"      ,   2,     -5916.3,      -474.4
"Line.LN6169253-1"      ,   1,         8.9,         2.2,         0.0,         0.0,         0.0,         0.0
"Line.LN6169253-1"      ,   2,        -8.9,        -2.2
"Line.LN6350536-1"      ,   1,         5.3,         1.3,         0.0,         0.0,         0.0,         0.0
"Line.LN6350536-1"      ,   2,        -5.3,        -1.3
"Line.LN6048523-1"      ,   1,       146.7,        36.5,         0.0,         0.0,         0.0,         0.0
"Line.LN6048523-1"      ,   2,      -146.7,       -36.5
"Line.LN5594152-1"      ,   1,       163.8,        40.9,         0.0,         0.0,         0.0,         0.0
"Line.LN5594152-1"      ,   2,      -163.7,       -40.8
"Line.LN5865248-1"      ,   1,       816.3,       204.1,         0.0,         0.0,         0.0,         0.0
"Line.LN5865248-1"      ,   2,      -816.0,      -204.0
"Line.LN6046143-1"      ,   1,         3.9,         1.0,         0.0,         0.0,         0.0,         0.0
"Line.LN6046143-1"      ,   2,        -3.9,        -1.0
"Line.LN5803287-1"      ,   1,        20.3,         5.1,         0.0,         0.0,         0.0,         0.0
"Line.LN5803287-1"      ,   2,       -20.3,        -5.1
"Line.LN5589094-1"      ,   1,       226.4,        56.9,         0.0,         0.0,         0.0,         0.0
"Line.LN5589094-1"      ,   2,      -226.3,       -56.9
"Line.LN5954983-1"      ,   1,       116.4,        29.0,         0.0,         0.0,         0.0,         0.0
"Line.LN5954983-1"      ,   2,      -116.3,       -28.9
"Line.LN5924696-2"      ,   1,         5.3,         1.3,         0.0,         0.0,         0.0,         0.0
"Line.LN5924696-2"      ,   2,        -5.3,        -1.3
"Line.LN6506311-4"      ,   1,         6.1,         1.5,         0.0,         0.0,         0.0,         0.0
"Line.LN6506311-4"      ,   2,        -6.1,        -1.5
"Line.LN5653493-1"      ,   1,       115.9,        28.9,         0.0,         0.0,         0.0,         0.0
"Line.LN5653493-1"      ,   2,      -115.9,       -28.9
"Line.LN5684836-1"      ,   1,      6010.6,       515.1,         0.0,         0.0,         0.0,         0.0
"Line.LN5684836-1"      ,   2,     -6007.9,      -508.6
"Line.LN5715016-3"      ,   1,         5.3,         1.3,         0.0,         0.0,         0.0,         0.0
"Line.LN5715016-3"      ,   2,        -5.3,        -1.3
"Line.LN6138614-1"      ,   1,       867.2,      -726.6,         0.0,         0.0,         0.0,         0.0
"Line.LN6138614-1"      ,   2,      -866.3,       726.9
"Line.LN6077781-2"      ,   1,      4933.3,      1270.9,         0.0,         0.0,         0.0,         0.0
"Line.LN6077781-2"      ,   2,     -4924.0,     -1262.1
"Line.LN5675121-1"      ,   1,         4.1,         1.0,         0.0,         0.0,         0.0,         0.0
"Line.LN5675121-1"      ,   2,        -4.1,        -1.0
"Line.LN5773046-1"      ,   1,       240.3,        60.1,         0.0,         0.0,         0.0,         0.0
"Line.LN5773046-1"      ,   2,      -240.1,       -60.0
"Line.LN6380809-2"      ,   1,       718.6,       181.1,         0.0,         0.0,         0.0,         0.0
"Line.LN6380809-2"      ,   2,      -718.5,      -181.1
"Line.LN6018326-1"      ,   1,        12.2,         3.0,         0.0,         0.0,         0.0,         0.0
"Line.LN6018326-1"      ,   2,       -12.2,        -3.0
"Line.LN5472356-1"      ,   1,         3.9,         1.0,         0.0,         0.0,         0.0,         0.0
"Line.LN5472356-1"      ,   2,        -3.9,        -1.0
"Line.LN6139641-1"      ,   1,      7295.0,      1108.5,         0.0,         0.0,         0.0,         0.0
"Line.LN6139641-1"      ,   2,     -7292.9,     -1103.3
"Line.LN6018341-1"      ,   1,      2612.3,      -279.2,         0.0,         0.0,         0.0,         0.0
"Line.LN6018341-1"      ,   2,     -2611.6,       280.7
"Line.LN6017302-1"      ,   1,       286.4,        71.9,         0.0,         0.0,         0.0,         0.0
"Line.LN6017302-1"      ,   2,      -286.3,       -71.8
"Line.LN6199505-1"      ,   1,         3.9,         1.0,         0.0,         0.0,         0.0,         0.0
"Line.LN6199505-1"      ,   2,        -3.9,        -1.0
"Line.LN5682327-1"      ,   1,       134.2,        33.4,         0.0,         0.0,         0.0,         0.0
"Line.LN5682327-1"      ,   2,      -134.2,       -33.4
"Line.LN6290243-1"      ,   1,        19.5,         4.9,         0.0,         0.0,         0.0,         0.0
"Line.LN6290243-1"      ,   2,       -19.5,        -4.9
"Line.SWX8223_48332_SW" ,   1,      1363.2,      -600.7,         0.0,         0.0,         0.0,         0.0
"Line.SWX8223_48332_SW" ,   2,     -1363.2,       600.7
"Line.LN6413567-3"      ,   1,      1363.5,      -600.5,         0.0,         0.0,         0.0,         0.0
"Line.LN6413567-3"      ,   2,     -1363.2,       600.7
"Line.LN5591731-3"      ,   1,      6242.9,       640.3,         0.0,         0.0,         0.0,         0.0
"Line.LN5591731-3"      ,   2,     -6242.8,      -640.1
"Line.LN5653470-1"      ,   1,        28.8,         7.2,         0.0,         0.0,         0.0,         0.0
"Line.LN5653470-1"      ,   2,       -28.8,        -7.2
"Line.LN6017316-1"      ,   1,       239.5,        59.9,         0.0,         0.0,         0.0,         0.0
"Line.LN6017316-1"      ,   2,      -239.3,       -59.8
"Line.LN5926299-1"      ,   1,        19.5,         4.9,         0.0,         0.0,         0.0,         0.0
"Line.LN5926299-1"      ,   2,       -19.5,        -4.9
"Line.LN5683831-1"      ,   1,       847.7,       212.0,         0.0,         0.0,         0.0,         0.0
"Line.LN5683831-1"      ,   2,      -847.2,      -211.9
"Line.LN6352700-1"      ,   1,        35.5,         8.8,         0.0,         0.0,         0.0,         0.0
"Line.LN6352700-1"      ,   2,       -35.5,        -8.8
"Line.LN6047570-1"      ,   1,         5.3,         1.3,         0.0,         0.0,         0.0,         0.0
"Line.LN6047570-1"      ,   2,        -5.3,        -1.3
"Line.LN5624342-1"      ,   1,      6051.0,       540.6,         0.0,         0.0,         0.0,         0.0
"Line.LN5624342-1"      ,   2,     -6048.8,      -535.3
"Line.LN6259992-1"      ,   1,         8.9,         2.2,         0.0,         0.0,         0.0,         0.0
"Line.LN6259992-1"      ,   2,        -8.9,        -2.2
"Line.LN5841919-1"      ,   1,         5.8,         1.5,         0.0,         0.0,         0.0,         0.0
"Line.LN5841919-1"      ,   2,        -5.8,        -1.5
"Line.LN6380811-1"      ,   1,       111.1,        27.6,         0.0,         0.0,         0.0,         0.0
"Line.LN6380811-1"      ,   2,      -111.0,       -27.6
"Line.LN5683832-1"      ,   1,         8.9,         2.2,         0.0,         0.0,         0.0,         0.0
"Line.LN5683832-1"      ,   2,        -8.9,        -2.2
"Line.LN6077778-1"      ,   1,         8.9,         2.2,         0.0,         0.0,         0.0,         0.0
"Line.LN6077778-1"      ,   2,        -8.9,        -2.2
"Line.LN5561442-2"      ,   1,      7211.8,      1016.8,         0.0,         0.0,         0.0,         0.0
"Line.LN5561442-2"      ,   2,     -7208.7,     -1009.5
"Line.LN6259983-1"      ,   1,         9.7,         2.4,         0.0,         0.0,         0.0,         0.0
"Line.LN6259983-1"      ,   2,        -9.7,        -2.4
"Line.LN5865244-1"      ,   1,       109.4,        27.1,         0.0,         0.0,         0.0,         0.0
"Line.LN5865244-1"      ,   2,      -109.4,       -27.1
"Line.LN6350555-1"      ,   1,         5.8,         1.5,         0.0,         0.0,         0.0,         0.0
"Line.LN6350555-1"      ,   2,        -5.8,        -1.5
"Line.LN5714039-1"      ,   1,        39.0,         9.7,         0.0,         0.0,         0.0,         0.0
"Line.LN5714039-1"      ,   2,       -39.0,        -9.7
"Line.LN5889821-1"      ,   1,      6171.7,       595.7,         0.0,         0.0,         0.0,         0.0
"Line.LN5889821-1"      ,   2,     -6168.1,      -587.2
"Line.LN5804791-1"      ,   1,      1228.6,      -634.5,         0.0,         0.0,         0.0,         0.0
"Line.LN5804791-1"      ,   2,     -1227.1,       635.0
"Line.LN5653486-1"      ,   1,        30.5,         7.6,         0.0,         0.0,         0.0,         0.0
"Line.LN5653486-1"      ,   2,       -30.5,        -7.6
"Line.LN5926286-1"      ,   1,        30.2,         7.5,         0.0,         0.0,         0.0,         0.0
"Line.LN5926286-1"      ,   2,       -30.2,        -7.5
"Line.LN6318859-1"      ,   1,        -0.0,        -0.0,         0.0,         0.0,         0.0,         0.0
"Line.LN6318859-1"      ,   2,         0.0,         0.0
"Line.LN5926316-1"      ,   1,        78.8,        19.7,         0.0,         0.0,         0.0,         0.0
"Line.LN5926316-1"      ,   2,       -78.8,       -19.7
"Line.LN5591703-1"      ,   1,        17.5,         4.4,         0.0,         0.0,         0.0,         0.0
"Line.LN5591703-1"      ,   2,       -17.5,        -4.4
"Line.LN5531333-1"      ,   1,        35.5,         8.8,         0.0,         0.0,         0.0,         0.0
"Line.LN5531333-1"      ,   2,       -35.5,        -8.8
"Line.LN6047581-1"      ,   1,         5.8,         1.5,         0.0,         0.0,         0.0,         0.0
"Line.LN6047581-1"      ,   2,        -5.8,        -1.5
"Line.LN6349077-1"      ,   1,         0.0,        -0.0,         0.0,         0.0,         0.0,         0.0
"Line.LN6349077-1"      ,   2,         0.0,         0.0
"Line.LN6350574-1"      ,   1,       187.4,        46.2,         0.0,         0.0,         0.0,         0.0
"Line.LN6350574-1"      ,   2,      -187.4,       -46.3
"Line.LN6320343-1"      ,   1,       120.0,        29.9,         0.0,         0.0,         0.0,         0.0
"Line.LN6320343-1"      ,   2,      -119.9,       -29.9
"Line.LN81048100-5"     ,   1,       180.1,        44.7,         0.0,         0.0,         0.0,         0.0
"Line.LN81048100-5"     ,   2,      -180.1,       -44.7
"Line.LN6348946-1"      ,   1,         9.7,         2.4,         0.0,         0.0,         0.0,         0.0
"Line.LN6348946-1"      ,   2,        -9.7,        -2.4
"Line.LN5744351-1"      ,   1,        10.2,         2.5,         0.0,         0.0,         0.0,         0.0
"Line.LN5744351-1"      ,   2,       -10.2,        -2.5
"Line.LN5472342-1"      ,   1,         5.3,         1.3,         0.0,         0.0,         0.0,         0.0
"Line.LN5472342-1"      ,   2,        -5.3,        -1.3
"Line.LN5621849-1"      ,   1,        26.4,         6.6,         0.0,         0.0,         0.0,         0.0
"Line.LN5621849-1"      ,   2,       -26.4,        -6.6
"Line.LN6379375-1"      ,   1,         5.3,         1.3,         0.0,         0.0,         0.0,         0.0
"Line.LN6379375-1"      ,   2,        -5.3,        -1.3
"Line.LN6028890-1"      ,   1,        48.0,        12.0,         0.0,         0.0,         0.0,         0.0
"Line.LN6028890-1"      ,   2,       -48.0,       -12.0
"Line.LN6380822-1"      ,   1,      1353.9,       340.3,         0.0,         0.0,         0.0,         0.0
"Line.LN6380822-1"      ,   2,     -1353.0,      -339.6
"Line.LN5835131-1"      ,   1,       786.9,       197.4,         0.0,         0.0,         0.0,         0.0
"Line.LN5835131-1"      ,   2,      -786.6,      -197.2
"Line.LN5803262-7"      ,   1,         4.1,         1.0,         0.0,         0.0,         0.0,         0.0
"Line.LN5803262-7"      ,   2,        -4.1,        -1.0
"Line.LN81048089-1"     ,   1,       102.1,        25.3,         0.0,         0.0,         0.0,         0.0
"Line.LN81048089-1"     ,   2,      -102.0,       -25.3
"Line.LN6201699-1"      ,   1,        14.2,         3.5,         0.0,         0.0,         0.0,         0.0
"Line.LN6201699-1"      ,   2,       -14.2,        -3.5
"Line.LN5746548-1"      ,   1,       669.4,       166.2,         0.0,         0.0,         0.0,         0.0
"Line.LN5746548-1"      ,   2,      -669.3,      -166.1
"Line.LN5835174-1"      ,   1,       249.7,        62.3,         0.0,         0.0,         0.0,         0.0
"Line.LN5835174-1"      ,   2,      -249.3,       -62.1
"Line.LN6505947-4"      ,   1,       120.1,        29.8,         0.0,         0.0,         0.0,         0.0
"Line.LN6505947-4"      ,   2,      -120.1,       -29.8
"Line.LN5683833-1"      ,   1,       203.4,        50.8,         0.0,         0.0,         0.0,         0.0
"Line.LN5683833-1"      ,   2,      -203.1,       -50.7
"Line.LN5561439-3"      ,   1,       485.1,       121.6,         0.0,         0.0,         0.0,         0.0
"Line.LN5561439-3"      ,   2,      -485.0,      -121.4
"Line.LN6109190-1"      ,   1,        31.0,         7.7,         0.0,         0.0,         0.0,         0.0
"Line.LN6109190-1"      ,   2,       -31.0,        -7.8
"Line.LN6258435-2"      ,   1,        17.7,         4.4,         0.0,         0.0,         0.0,         0.0
"Line.LN6258435-2"      ,   2,       -17.7,        -4.4
"Line.LN5804819-1"      ,   1,         5.8,         1.4,         0.0,         0.0,         0.0,         0.0
"Line.LN5804819-1"      ,   2,        -5.8,        -1.5
"Line.LN5593215-1"      ,   1,       213.5,        53.2,         0.0,         0.0,         0.0,         0.0
"Line.LN5593215-1"      ,   2,      -213.5,       -53.2
"Line.LN5833717-1"      ,   1,      1006.6,       254.3,         0.0,         0.0,         0.0,         0.0
"Line.LN5833717-1"      ,   2,     -1006.3,      -254.1
"Line.LN6199557-1"      ,   1,       991.7,       250.5,         0.0,         0.0,         0.0,         0.0
"Line.LN6199557-1"      ,   2,      -991.3,      -250.1
"Line.LN5744332-1"      ,   1,         6.1,         1.5,         0.0,         0.0,         0.0,         0.0
"Line.LN5744332-1"      ,   2,        -6.1,        -1.5
"Line.LN5558790-1"      ,   1,      7382.4,      1182.5,         0.0,         0.0,         0.0,         0.0
"Line.LN5558790-1"      ,   2,     -7381.6,     -1180.6
"Line.LN6078692-1"      ,   1,       215.1,        53.8,         0.0,         0.0,         0.0,         0.0
"Line.LN6078692-1"      ,   2,      -215.0,       -53.8
"Line.LN5956482-1"      ,   1,       340.8,        85.2,         0.0,         0.0,         0.0,         0.0
"Line.LN5956482-1"      ,   2,      -340.8,       -85.2
"Line.LN5593225-1"      ,   1,         9.7,         2.4,         0.0,         0.0,         0.0,         0.0
"Line.LN5593225-1"      ,   2,        -9.7,        -2.4
"Line.LN6900591-26"     ,   1,        71.8,        18.0,         0.0,         0.0,         0.0,         0.0
"Line.LN6900591-26"     ,   2,       -71.8,       -18.0
"Line.LN5952393-1"      ,   1,        39.9,        10.0,         0.0,         0.0,         0.0,         0.0
"Line.LN5952393-1"      ,   2,       -39.9,       -10.0
"Line.LN6350531-1"      ,   1,        39.0,         9.6,         0.0,         0.0,         0.0,         0.0
"Line.LN6350531-1"      ,   2,       -38.9,        -9.6
"Line.LN5965099-10"     ,   1,       290.2,        71.5,         0.0,         0.0,         0.0,         0.0
"Line.LN5965099-10"     ,   2,      -290.1,       -71.5
"Line.LN6047568-1"      ,   1,       235.8,        59.2,         0.0,         0.0,         0.0,         0.0
"Line.LN6047568-1"      ,   2,      -235.4,       -59.0
"Line.LN5926292-1"      ,   1,         9.7,         2.4,         0.0,         0.0,         0.0,         0.0
"Line.LN5926292-1"      ,   2,        -9.7,        -2.4
"Line.LN6380806-1"      ,   1,        23.1,         5.7,         0.0,         0.0,         0.0,         0.0
"Line.LN6380806-1"      ,   2,       -23.1,        -5.7
"Line.LN6341781-3"      ,   1,         8.9,         2.2,         0.0,         0.0,         0.0,         0.0
"Line.LN6341781-3"      ,   2,        -8.9,        -2.2
"Line.LN8979367-1"      ,   1,        13.3,         3.1,         0.0,         0.0,         0.0,         0.0
"Line.LN8979367-1"      ,   2,       -13.3,        -3.1
"Line.LN6018340-1"      ,   1,        18.5,         4.6,         0.0,         0.0,         0.0,         0.0
"Line.LN6018340-1"      ,   2,       -18.5,        -4.6
"Line.LN6380847-1"      ,   1,       610.5,       152.7,         0.0,         0.0,         0.0,         0.0
"Line.LN6380847-1"      ,   2,      -610.0,      -152.6
...