src/TestNetwork/8500Node(OpenDSS)/IEEE8500_Power_elem_kVA.txt

CIRCUIT ELEMENT POWER FLOW

(Power Flow into element from indicated Bus)

Power Delivery Elements

  Bus                Phase     kW     +j   kvar         kVA         PF

ELEMENT = "Vsource.SOURCE"
SOURCEBUS                1     -4022.0 +j   -517.2     4055.1       0.9918
SOURCEBUS                2     -3804.8 +j   -493.6     3836.6       0.9917
SOURCEBUS                3     -3933.8 +j   -317.3     3946.6       0.9968
   TERMINAL TOTAL ............-11760.5 +j  -1328.0    11835.3       0.9937
SOURCEBUS                0         0.0 +j      0.0        0.0       1.0000
SOURCEBUS                0         0.0 +j      0.0        0.0       1.0000
SOURCEBUS                0         0.0 +j      0.0        0.0       1.0000
   TERMINAL TOTAL ............     0.0 +j      0.0        0.0       1.0000

ELEMENT = "Line.HVMV_SUB_CONNECTOR"
_HVMV_SUB_LSB            1      4071.1 +j    145.7     4073.7       0.9994
_HVMV_SUB_LSB            2      3912.8 +j    196.2     3917.7       0.9987
_HVMV_SUB_LSB            3      3714.5 +j    124.6     3716.6       0.9994
   TERMINAL TOTAL ............ 11698.3 +j    466.5    11707.6       0.9992
HVMV_SUB_48332           1     -4071.1 +j   -145.7     4073.7       0.9994
HVMV_SUB_48332           2     -3912.8 +j   -196.2     3917.7       0.9987
HVMV_SUB_48332           3     -3714.5 +j   -124.6     3716.6       0.9994
   TERMINAL TOTAL ............-11698.3 +j   -466.5    11707.6       0.9992

ELEMENT = "Line.LN5502549-1"
M1009763                 2        13.6 +j      3.4       14.0       0.9702
   TERMINAL TOTAL ............    13.6 +j      3.4       14.0       0.9702
L2673322                 2       -13.6 +j     -3.4       14.0       0.9701
   TERMINAL TOTAL ............   -13.6 +j     -3.4       14.0       0.9701

ELEMENT = "Line.LN6259988-1"
M1069148                 3        10.2 +j      2.5       10.5       0.9703
   TERMINAL TOTAL ............    10.2 +j      2.5       10.5       0.9703
L2673309                 3       -10.2 +j     -2.5       10.5       0.9700
   TERMINAL TOTAL ............   -10.2 +j     -2.5       10.5       0.9700

ELEMENT = "Line.LN6077796-1"
M1069588                 2        11.7 +j      2.9       12.0       0.9703
   TERMINAL TOTAL ............    11.7 +j      2.9       12.0       0.9703
L2804270                 2       -11.7 +j     -2.9       12.0       0.9702
   TERMINAL TOTAL ............   -11.7 +j     -2.9       12.0       0.9702

ELEMENT = "Line.LN5835135-2"
M3036164                 2       113.2 +j     28.0      116.6       0.9707
   TERMINAL TOTAL ............   113.2 +j     28.0      116.6       0.9707
L2935553                 2      -113.2 +j    -28.0      116.6       0.9707
   TERMINAL TOTAL ............  -113.2 +j    -28.0      116.6       0.9707

ELEMENT = "Line.LN5896826-1"
M1209749                 2         5.8 +j      1.4        6.0       0.9711
   TERMINAL TOTAL ............     5.8 +j      1.4        6.0       0.9711
L2748840                 2        -5.8 +j     -1.5        6.0       0.9700
   TERMINAL TOTAL ............    -5.8 +j     -1.5        6.0       0.9700

ELEMENT = "Line.LN5714038-1"
M1108264                 2        15.6 +j      3.8       16.0       0.9720
   TERMINAL TOTAL ............    15.6 +j      3.8       16.0       0.9720
M1108263                 2       -15.6 +j     -3.8       16.0       0.9718
   TERMINAL TOTAL ............   -15.6 +j     -3.8       16.0       0.9718

ELEMENT = "Line.LN5653457-1"
L3085398                 1       138.5 +j     34.2      142.7       0.9708
L3085398                 2       293.8 +j     73.6      302.8       0.9700
L3085398                 3       112.0 +j     27.7      115.4       0.9708
   TERMINAL TOTAL ............   544.3 +j    135.4      560.9       0.9704
M1026891                 1      -138.4 +j    -34.2      142.6       0.9708
M1026891                 2      -293.5 +j    -73.5      302.6       0.9701
M1026891                 3      -112.0 +j    -27.7      115.4       0.9708
   TERMINAL TOTAL ............  -544.0 +j   -135.4      560.6       0.9704

ELEMENT = "Line.LN5835173-1"
L3216367                 1       199.1 +j     48.7      205.0       0.9714
L3216367                 2       439.5 +j    112.2      453.6       0.9689
L3216367                 3       332.9 +j     84.0      343.3       0.9696
   TERMINAL TOTAL ............   971.5 +j    244.9     1001.9       0.9697
M1069468                 1      -199.1 +j    -48.7      205.0       0.9713
M1069468                 2      -439.3 +j   -112.1      453.4       0.9690
M1069468                 3      -332.9 +j    -84.0      343.3       0.9696
   TERMINAL TOTAL ............  -971.3 +j   -244.8     1001.7       0.9697

ELEMENT = "Line.LN6321415-1"
M1142800                 2         9.7 +j      2.4       10.0       0.9718
   TERMINAL TOTAL ............     9.7 +j      2.4       10.0       0.9718
M1142799                 2        -9.7 +j     -2.4       10.0       0.9715
   TERMINAL TOTAL ............    -9.7 +j     -2.4       10.0       0.9715

ELEMENT = "Line.LN5565092-1"
M1047592                 3        15.3 +j      3.8       15.7       0.9701
   TERMINAL TOTAL ............    15.3 +j      3.8       15.7       0.9701
P827512                  3       -15.3 +j     -3.8       15.7       0.9701
   TERMINAL TOTAL ............   -15.3 +j     -3.8       15.7       0.9701

ELEMENT = "Line.LN6073648-1"
M1047339                 1        21.3 +j      5.3       21.9       0.9706
   TERMINAL TOTAL ............    21.3 +j      5.3       21.9       0.9706
P895104                  1       -21.3 +j     -5.3       21.9       0.9706
   TERMINAL TOTAL ............   -21.3 +j     -5.3       21.9       0.9706

ELEMENT = "Line.LN5774457-1"
M1026915                 1       207.7 +j     51.7      214.1       0.9704
M1026915                 2       167.9 +j     41.4      173.0       0.9709
M1026915                 3       161.2 +j     40.0      166.1       0.9706
   TERMINAL TOTAL ............   536.9 +j    133.1      553.1       0.9706
M1026920                 1      -207.7 +j    -51.7      214.0       0.9704
M1026920                 2      -167.9 +j    -41.4      172.9       0.9709
M1026920                 3      -161.2 +j    -40.0      166.0       0.9706
   TERMINAL TOTAL ............  -536.8 +j   -133.0      553.0       0.9706

ELEMENT = "Line.LN5534966-3"
N1138596                 1        77.2 +j     19.3       79.6       0.9702
   TERMINAL TOTAL ............    77.2 +j     19.3       79.6       0.9702
L3254207                 1       -77.2 +j    -19.3       79.6       0.9702
   TERMINAL TOTAL ............   -77.2 +j    -19.3       79.6       0.9702

ELEMENT = "Line.LN5859996-1"
M1069464                 2        19.5 +j      4.9       20.1       0.9702
   TERMINAL TOTAL ............    19.5 +j      4.9       20.1       0.9702
P873787                  2       -19.5 +j     -4.9       20.1       0.9702
   TERMINAL TOTAL ............   -19.5 +j     -4.9       20.1       0.9702

ELEMENT = "Line.LN6138610-2"
N1144665                 1       838.2 +j    209.8      864.0       0.9701
N1144665                 2       640.5 +j    164.5      661.3       0.9686
N1144665                 3       729.9 +j    185.4      753.1       0.9692
   TERMINAL TOTAL ............  2208.5 +j    559.8     2278.4       0.9693
M1047515                 1      -837.6 +j   -209.6      863.4       0.9701
M1047515                 2      -640.1 +j   -164.4      660.9       0.9686
M1047515                 3      -729.4 +j   -185.3      752.6       0.9692
   TERMINAL TOTAL ............ -2207.2 +j   -559.3     2276.9       0.9694

ELEMENT = "Line.LN6258435-3"
N1137002                 1        17.7 +j      4.4       18.3       0.9703
   TERMINAL TOTAL ............    17.7 +j      4.4       18.3       0.9703
M1047707                 1       -17.7 +j     -4.4       18.3       0.9702
   TERMINAL TOTAL ............   -17.7 +j     -4.4       18.3       0.9702

ELEMENT = "Line.LN5804790-1"
L2729406                 3        10.2 +j      2.5       10.5       0.9705
   TERMINAL TOTAL ............    10.2 +j      2.5       10.5       0.9705
L2897768                 3       -10.2 +j     -2.5       10.5       0.9700
   TERMINAL TOTAL ............   -10.2 +j     -2.5       10.5       0.9700

ELEMENT = "Line.LN6900591-14"
L3649301                 1        31.9 +j      8.0       32.9       0.9702
   TERMINAL TOTAL ............    31.9 +j      8.0       32.9       0.9702
L3649302                 1       -31.9 +j     -8.0       32.9       0.9701
   TERMINAL TOTAL ............   -31.9 +j     -8.0       32.9       0.9701

ELEMENT = "Line.LN6409873-1"
L2970842                 2        75.1 +j     18.2       77.3       0.9718
   TERMINAL TOTAL ............    75.1 +j     18.2       77.3       0.9718
M1089113                 2       -75.1 +j    -18.2       77.3       0.9718
   TERMINAL TOTAL ............   -75.1 +j    -18.2       77.3       0.9718

ELEMENT = "Line.LN6014135-1"
M1047312                 1        66.6 +j     16.6       68.6       0.9704
   TERMINAL TOTAL ............    66.6 +j     16.6       68.6       0.9704
P893163                  1       -66.6 +j    -16.6       68.6       0.9704
   TERMINAL TOTAL ............   -66.6 +j    -16.6       68.6       0.9704

ELEMENT = "Line.LN6077784-1"
L2822871                 1       401.9 +j    100.1      414.2       0.9704
L2822871                 2       487.9 +j    123.1      503.2       0.9696
L2822871                 3       300.0 +j     74.5      309.1       0.9705
   TERMINAL TOTAL ............  1189.8 +j    297.6     1226.5       0.9701
M1026872                 1      -401.8 +j   -100.0      414.1       0.9704
M1026872                 2      -487.8 +j   -122.9      503.0       0.9697
M1026872                 3      -299.9 +j    -74.4      309.0       0.9705
   TERMINAL TOTAL ............ -1189.5 +j   -297.3     1226.1       0.9702

ELEMENT = "Line.LN5744338-1"
M1026312                 2       182.8 +j     45.7      188.4       0.9701
   TERMINAL TOTAL ............   182.8 +j     45.7      188.4       0.9701
L2973163                 2      -182.7 +j    -45.7      188.3       0.9701
   TERMINAL TOTAL ............  -182.7 +j    -45.7      188.3       0.9701

ELEMENT = "Line.LN6991381-4"
L3728038                 1        35.5 +j      8.9       36.6       0.9701
   TERMINAL TOTAL ............    35.5 +j      8.9       36.6       0.9701
L3728039                 1       -35.5 +j     -8.9       36.6       0.9701
   TERMINAL TOTAL ............   -35.5 +j     -8.9       36.6       0.9701

ELEMENT = "Line.LN5774480-1"
M1069567                 2       220.7 +j     55.2      227.5       0.9702
   TERMINAL TOTAL ............   220.7 +j     55.2      227.5       0.9702
M1069582                 2      -220.4 +j    -55.0      227.2       0.9702
   TERMINAL TOTAL ............  -220.4 +j    -55.0      227.2       0.9702

ELEMENT = "Line.LN5986938-3"
N1140830                 1        37.3 +j      9.2       38.4       0.9709
   TERMINAL TOTAL ............    37.3 +j      9.2       38.4       0.9709
L3216351                 1       -37.3 +j     -9.2       38.4       0.9709
   TERMINAL TOTAL ............   -37.3 +j     -9.2       38.4       0.9709

ELEMENT = "Line.LN5894230-1"
L2952007                 3        10.2 +j      2.5       10.5       0.9704
   TERMINAL TOTAL ............    10.2 +j      2.5       10.5       0.9704
L2861158                 3       -10.2 +j     -2.5       10.5       0.9700
   TERMINAL TOTAL ............   -10.2 +j     -2.5       10.5       0.9700

ELEMENT = "Line.LN5683858-3"
N1140827                 1        17.7 +j      4.4       18.3       0.9701
N1140827                 2        29.2 +j      7.3       30.1       0.9702
N1140827                 3        20.3 +j      5.1       21.0       0.9701
   TERMINAL TOTAL ............    67.3 +j     16.8       69.3       0.9702
M1026726                 1       -17.7 +j     -4.4       18.3       0.9701
M1026726                 2       -29.2 +j     -7.3       30.1       0.9702
M1026726                 3       -20.3 +j     -5.1       21.0       0.9701
   TERMINAL TOTAL ............   -67.3 +j    -16.8       69.3       0.9701

ELEMENT = "Line.LN5920279-5"
L2730106                 1      2321.1 +j    294.8     2339.7       0.9920
L2730106                 2      2231.7 +j    295.0     2251.1       0.9914
L2730106                 3      1645.6 +j     22.9     1645.7       0.9999
   TERMINAL TOTAL ............  6198.4 +j    612.7     6228.6       0.9951
N1142099                 1     -2320.4 +j   -293.9     2338.9       0.9921
N1142099                 2     -2231.5 +j   -293.9     2250.7       0.9914
N1142099                 3     -1645.6 +j    -22.7     1645.7       0.9999
   TERMINAL TOTAL ............ -6197.4 +j   -610.5     6227.4       0.9952

ELEMENT = "Line.LN6439600-1"
M1026658                 1         8.9 +j      2.2        9.1       0.9703
   TERMINAL TOTAL ............     8.9 +j      2.2        9.1       0.9703
L3172805                 1        -8.9 +j     -2.2        9.1       0.9700
   TERMINAL TOTAL ............    -8.9 +j     -2.2        9.1       0.9700

ELEMENT = "Line.LN5589097-1"
P895112                  1        13.3 +j      3.3       13.7       0.9701
   TERMINAL TOTAL ............    13.3 +j      3.3       13.7       0.9701
L3048962                 1       -13.3 +j     -3.3       13.7       0.9700
   TERMINAL TOTAL ............   -13.3 +j     -3.3       13.7       0.9700

ELEMENT = "Line.LN5651975-1"
L2991914                 1       430.3 +j    108.5      443.7       0.9697
L2991914                 2       104.3 +j     25.3      107.3       0.9717
L2991914                 3       233.4 +j     57.4      240.4       0.9711
   TERMINAL TOTAL ............   767.9 +j    191.2      791.4       0.9704
M1047503                 1      -430.1 +j   -108.4      443.5       0.9697
M1047503                 2      -104.2 +j    -25.3      107.3       0.9717
M1047503                 3      -233.4 +j    -57.4      240.3       0.9710
   TERMINAL TOTAL ............  -767.7 +j   -191.1      791.1       0.9704

ELEMENT = "Line.LN5865236-1"
M1047751                 1        17.7 +j      4.4       18.3       0.9703
   TERMINAL TOTAL ............    17.7 +j      4.4       18.3       0.9703
L2973154                 1       -17.7 +j     -4.4       18.3       0.9703
   TERMINAL TOTAL ............   -17.7 +j     -4.4       18.3       0.9703

ELEMENT = "Line.LN5593232-1"
L3010565                 3        10.2 +j      2.5       10.5       0.9704
   TERMINAL TOTAL ............    10.2 +j      2.5       10.5       0.9704
L2897775                 3       -10.2 +j     -2.5       10.5       0.9700
   TERMINAL TOTAL ............   -10.2 +j     -2.5       10.5       0.9700

ELEMENT = "Line.LN5740283-1"
M1125955                 3        12.2 +j      3.0       12.6       0.9703
   TERMINAL TOTAL ............    12.2 +j      3.0       12.6       0.9703
M1125957                 3       -12.2 +j     -3.0       12.6       0.9703
   TERMINAL TOTAL ............   -12.2 +j     -3.0       12.6       0.9703

ELEMENT = "Line.LN6106559-1"
M1069640                 2        27.3 +j      6.8       28.1       0.9704
   TERMINAL TOTAL ............    27.3 +j      6.8       28.1       0.9704
L2804269                 2       -27.3 +j     -6.8       28.1       0.9703
   TERMINAL TOTAL ............   -27.3 +j     -6.8       28.1       0.9703

ELEMENT = "Line.LN5714056-3"
M1026702                 1       355.9 +j     88.5      366.7       0.9704
M1026702                 2        79.8 +j     19.6       82.2       0.9713
M1026702                 3       176.5 +j     43.7      181.9       0.9706
   TERMINAL TOTAL ............   612.2 +j    151.8      630.7       0.9706
N1139551                 1      -355.4 +j    -88.3      366.2       0.9705
N1139551                 2       -79.8 +j    -19.6       82.2       0.9712
N1139551                 3      -176.4 +j    -43.7      181.7       0.9706
   TERMINAL TOTAL ............  -611.5 +j   -151.6      630.0       0.9706

ELEMENT = "Line.LN5985355-3"
N1136355                 2       386.8 +j     97.0      398.7       0.9700
   TERMINAL TOTAL ............   386.8 +j     97.0      398.7       0.9700
L2783231                 2      -386.4 +j    -96.8      398.4       0.9700
   TERMINAL TOTAL ............  -386.4 +j    -96.8      398.4       0.9700

ELEMENT = "Line.LN5531956-1"
L2748143                 1         8.9 +j      2.2        9.1       0.9702
   TERMINAL TOTAL ............     8.9 +j      2.2        9.1       0.9702
L3251854                 1        -8.9 +j     -2.2        9.1       0.9700
   TERMINAL TOTAL ............    -8.9 +j     -2.2        9.1       0.9700

ELEMENT = "Line.LN5650048-1"
M1069610                 2         9.7 +j      2.4       10.0       0.9704
   TERMINAL TOTAL ............     9.7 +j      2.4       10.0       0.9704
M1069600                 2        -9.7 +j     -2.4       10.0       0.9702
   TERMINAL TOTAL ............    -9.7 +j     -2.4       10.0       0.9702

ELEMENT = "Line.LN6290203-1"
M1069424                 1       152.8 +j     37.4      157.3       0.9713
M1069424                 2       377.4 +j     95.8      389.3       0.9693
M1069424                 3       271.5 +j     68.1      279.9       0.9700
   TERMINAL TOTAL ............   801.7 +j    201.2      826.6       0.9699
L2935549                 1      -152.7 +j    -37.4      157.3       0.9712
L2935549                 2      -377.2 +j    -95.6      389.1       0.9693
L2935549                 3      -271.5 +j    -68.0      279.9       0.9700
   TERMINAL TOTAL ............  -801.4 +j   -201.1      826.3       0.9699

ELEMENT = "Line.LN6134414-1"
P895089                  3        20.3 +j      5.1       21.0       0.9705
   TERMINAL TOTAL ............    20.3 +j      5.1       21.0       0.9705
L3235242                 3       -20.3 +j     -5.1       21.0       0.9704
   TERMINAL TOTAL ............   -20.3 +j     -5.1       21.0       0.9704

ELEMENT = "Line.LN6259998-2"
M1026795                 3        12.2 +j      3.0       12.6       0.9702
   TERMINAL TOTAL ............    12.2 +j      3.0       12.6       0.9702
N1140522                 3       -12.2 +j     -3.0       12.6       0.9702
   TERMINAL TOTAL ............   -12.2 +j     -3.0       12.6       0.9702

ELEMENT = "Line.LN6078767-1"
L3030199                 1       747.3 +j   -121.4      757.1      -0.9871
L3030199                 2       892.6 +j    -74.4      895.7      -0.9965
L3030199                 3      1138.6 +j    -29.3     1139.0      -0.9997
   TERMINAL TOTAL ............  2778.5 +j   -225.1     2787.6      -0.9967
M1125934                 1      -747.3 +j    121.5      757.1      -0.9870
M1125934                 2      -892.5 +j     74.5      895.6      -0.9965
M1125934                 3     -1138.5 +j     29.6     1138.9      -0.9997
   TERMINAL TOTAL ............ -2778.3 +j    225.6     2787.4      -0.9967

ELEMENT = "Line.LN6017300-1"
M1069189                 3         6.1 +j      1.5        6.3       0.9704
   TERMINAL TOTAL ............     6.1 +j      1.5        6.3       0.9704
L2860487                 3        -6.1 +j     -1.5        6.3       0.9700
   TERMINAL TOTAL ............    -6.1 +j     -1.5        6.3       0.9700

ELEMENT = "Line.LN8979257-2"
221-312488               1         8.9 +j      2.2        9.1       0.9715
221-312488               2         9.7 +j      2.4       10.0       0.9714
221-312488               3        10.2 +j      2.5       10.5       0.9715
   TERMINAL TOTAL ............    28.8 +j      7.0       29.6       0.9715
M1089183                 1        -8.9 +j     -2.2        9.1       0.9712
M1089183                 2        -9.7 +j     -2.4       10.0       0.9711
M1089183                 3       -10.2 +j     -2.5       10.5       0.9712
   TERMINAL TOTAL ............   -28.8 +j     -7.1       29.6       0.9712

ELEMENT = "Line.LN81048109-1"
M1108464                 2        29.2 +j      7.2       30.1       0.9711
   TERMINAL TOTAL ............    29.2 +j      7.2       30.1       0.9711
L3102286                 2       -29.2 +j     -7.2       30.1       0.9707
   TERMINAL TOTAL ............   -29.2 +j     -7.2       30.1       0.9707

ELEMENT = "Line.293471"
F739845                  1         8.9 +j      2.2        9.1       0.9701
F739845                  2         9.7 +j      2.4       10.0       0.9701
F739845                  3        10.2 +j      2.5       10.5       0.9701
   TERMINAL TOTAL ............    28.8 +j      7.2       29.7       0.9701
293471                   1        -8.9 +j     -2.2        9.1       0.9700
293471                   2        -9.7 +j     -2.4       10.0       0.9700
293471                   3       -10.2 +j     -2.5       10.5       0.9700
   TERMINAL TOTAL ............   -28.8 +j     -7.2       29.7       0.9700

ELEMENT = "Line.LN5534965-2"
P827499                  1         8.9 +j      2.2        9.1       0.9701
   TERMINAL TOTAL ............     8.9 +j      2.2        9.1       0.9701
N1139254                 1        -8.9 +j     -2.2        9.1       0.9701
   TERMINAL TOTAL ............    -8.9 +j     -2.2        9.1       0.9701

ELEMENT = "Line.LN5655683-1"
M1026657                 1       139.9 +j     34.8      144.1       0.9705
   TERMINAL TOTAL ............   139.9 +j     34.8      144.1       0.9705
M1026656                 1      -139.9 +j    -34.8      144.1       0.9705
   TERMINAL TOTAL ............  -139.9 +j    -34.8      144.1       0.9705

ELEMENT = "Line.LN5686247-1"
M1108299                 2        13.6 +j      3.4       14.0       0.9706
   TERMINAL TOTAL ............    13.6 +j      3.4       14.0       0.9706
M1108300                 2       -13.6 +j     -3.4       14.0       0.9706
   TERMINAL TOTAL ............   -13.6 +j     -3.4       14.0       0.9706

ELEMENT = "Line.LN6048642-1"
L3198355                 2         0.0 +j     -0.0        0.0      -0.0000
   TERMINAL TOTAL ............     0.0 +j     -0.0        0.0      -0.0000
L2805037                 2         0.0 +j      0.0        0.0       0.9930
   TERMINAL TOTAL ............     0.0 +j      0.0        0.0       0.9930

ELEMENT = "Line.LN5928544-3"
N1137994                 3       101.8 +j     25.4      104.9       0.9703
   TERMINAL TOTAL ............   101.8 +j     25.4      104.9       0.9703
M1069484                 3      -101.8 +j    -25.4      104.9       0.9703
   TERMINAL TOTAL ............  -101.8 +j    -25.4      104.9       0.9703

ELEMENT = "Line.LN6108172-1"
L2860504                 1        17.7 +j      4.4       18.3       0.9705
   TERMINAL TOTAL ............    17.7 +j      4.4       18.3       0.9705
L2860493                 1       -17.7 +j     -4.4       18.3       0.9701
   TERMINAL TOTAL ............   -17.7 +j     -4.4       18.3       0.9701

ELEMENT = "Line.LN5532754-1"
M1026783                 1       394.8 +j     98.9      407.0       0.9700
M1026783                 2       104.2 +j     25.5      107.3       0.9714
M1026783                 3       193.9 +j     47.7      199.7       0.9710
   TERMINAL TOTAL ............   692.9 +j    172.1      714.0       0.9705
M1026780                 1      -394.7 +j    -98.9      406.9       0.9700
M1026780                 2      -104.2 +j    -25.5      107.3       0.9714
M1026780                 3      -193.9 +j    -47.7      199.7       0.9710
   TERMINAL TOTAL ............  -692.8 +j   -172.1      713.8       0.9705

ELEMENT = "Line.LN5591834-1"
P895111                  3        26.4 +j      6.6       27.2       0.9706
   TERMINAL TOTAL ............    26.4 +j      6.6       27.2       0.9706
L2895496                 3       -26.4 +j     -6.6       27.2       0.9705
   TERMINAL TOTAL ............   -26.4 +j     -6.6       27.2       0.9705

ELEMENT = "Line.LN6347196-2"
N1140819                 1       191.8 +j     47.5      197.6       0.9706
N1140819                 2        73.9 +j     18.2       76.1       0.9711
N1140819                 3       176.2 +j     43.7      181.5       0.9705
   TERMINAL TOTAL ............   441.9 +j    109.4      455.2       0.9707
M1026700                 1      -191.8 +j    -47.5      197.6       0.9706
M1026700                 2       -73.9 +j    -18.2       76.1       0.9711
M1026700                 3      -176.2 +j    -43.7      181.5       0.9705
   TERMINAL TOTAL ............  -441.8 +j   -109.4      455.2       0.9707

ELEMENT = "Line.LN5532741-1"
M1089173                 3        62.1 +j     15.4       64.0       0.9706
   TERMINAL TOTAL ............    62.1 +j     15.4       64.0       0.9706
L2935551                 3       -62.1 +j    -15.4       64.0       0.9706
   TERMINAL TOTAL ............   -62.1 +j    -15.4       64.0       0.9706

ELEMENT = "Line.LN5804803-1"
M1026344                 1         5.3 +j      1.3        5.5       0.9719
   TERMINAL TOTAL ............     5.3 +j      1.3        5.5       0.9719
M1026364                 1        -5.3 +j     -1.3        5.5       0.9703
   TERMINAL TOTAL ............    -5.3 +j     -1.3        5.5       0.9703

ELEMENT = "Line.LN6169248-1"
L2879070                 1       780.6 +j    197.5      805.2       0.9694
L2879070                 2       523.9 +j    134.6      540.9       0.9686
L2879070                 3       321.1 +j     79.6      330.8       0.9706
   TERMINAL TOTAL ............  1625.5 +j    411.7     1676.8       0.9694
L3216345                 1      -779.8 +j   -196.9      804.3       0.9696
L3216345                 2      -523.7 +j   -134.3      540.7       0.9687
L3216345                 3      -321.0 +j    -79.6      330.7       0.9706
   TERMINAL TOTAL ............ -1624.6 +j   -410.8     1675.7       0.9695

ELEMENT = "Line.LN5532786-2"
M1069428                 2        15.6 +j      3.9       16.0       0.9703
   TERMINAL TOTAL ............    15.6 +j      3.9       16.0       0.9703
N1139257                 2       -15.6 +j     -3.9       16.0       0.9702
   TERMINAL TOTAL ............   -15.6 +j     -3.9       16.0       0.9702

ELEMENT = "Line.LN5744339-1"
L2991919                 1       112.8 +j     28.1      116.2       0.9703
   TERMINAL TOTAL ............   112.8 +j     28.1      116.2       0.9703
M1026361                 1      -112.7 +j    -28.1      116.2       0.9703
   TERMINAL TOTAL ............  -112.7 +j    -28.1      116.2       0.9703

ELEMENT = "Line.LN5531255-3"
N1147857                 1       116.4 +j     29.0      119.9       0.9704
   TERMINAL TOTAL ............   116.4 +j     29.0      119.9       0.9704
M1009742                 1      -116.4 +j    -29.0      119.9       0.9704
   TERMINAL TOTAL ............  -116.4 +j    -29.0      119.9       0.9704

ELEMENT = "Line.LN5926308-2"
Q14412                   1       279.3 +j     69.1      287.7       0.9707
Q14412                   2       337.0 +j     85.6      347.7       0.9692
Q14412                   3       135.5 +j     33.3      139.5       0.9711
   TERMINAL TOTAL ............   751.8 +j    188.0      774.9       0.9701
M1047325                 1      -279.2 +j    -69.1      287.6       0.9707
M1047325                 2      -336.9 +j    -85.6      347.6       0.9692
M1047325                 3      -135.5 +j    -33.3      139.5       0.9711
   TERMINAL TOTAL ............  -751.5 +j   -187.9      774.7       0.9701

ELEMENT = "Line.LN5683856-3"
N1139263                 1         8.9 +j      2.2        9.1       0.9701
   TERMINAL TOTAL ............     8.9 +j      2.2        9.1       0.9701
L3048227                 1        -8.9 +j     -2.2        9.1       0.9700
   TERMINAL TOTAL ............    -8.9 +j     -2.2        9.1       0.9700

ELEMENT = "Line.LN6171502-1"
P827506                  1        14.2 +j      3.5       14.6       0.9705
   TERMINAL TOTAL ............    14.2 +j      3.5       14.6       0.9705
M1069469                 1       -14.2 +j     -3.5       14.6       0.9705
   TERMINAL TOTAL ............   -14.2 +j     -3.5       14.6       0.9705

ELEMENT = "Line.LN5593228-1"
M1027019                 2         9.7 +j      2.4       10.0       0.9702
   TERMINAL TOTAL ............     9.7 +j      2.4       10.0       0.9702
L2785522                 2        -9.7 +j     -2.4       10.0       0.9700
   TERMINAL TOTAL ............    -9.7 +j     -2.4       10.0       0.9700

ELEMENT = "Line.LN6380800-1"
L3216338                 2         9.7 +j      2.4       10.0       0.9702
   TERMINAL TOTAL ............     9.7 +j      2.4       10.0       0.9702
L2973146                 2        -9.7 +j     -2.4       10.0       0.9700
   TERMINAL TOTAL ............    -9.7 +j     -2.4       10.0       0.9700

ELEMENT = "Line.LN6199525-2"
M3037452                 1         3.6 +j      0.9        3.7       0.9706
   TERMINAL TOTAL ............     3.6 +j      0.9        3.7       0.9706
L2973164                 1        -3.6 +j     -0.9        3.7       0.9700
   TERMINAL TOTAL ............    -3.6 +j     -0.9        3.7       0.9700

ELEMENT = "Line.LN5772710-2"
L3120376                 1        71.0 +j     17.7       73.2       0.9703
   TERMINAL TOTAL ............    71.0 +j     17.7       73.2       0.9703
M1026925                 1       -71.0 +j    -17.7       73.2       0.9703
   TERMINAL TOTAL ............   -71.0 +j    -17.7       73.2       0.9703

ELEMENT = "Line.LN8961760-1"
M1047612                 3        48.5 +j     11.9       49.9       0.9712
   TERMINAL TOTAL ............    48.5 +j     11.9       49.9       0.9712
P828360                  3       -48.5 +j    -11.9       49.9       0.9712
   TERMINAL TOTAL ............   -48.5 +j    -11.9       49.9       0.9712

ELEMENT = "Line.LN6047556-1"
M1089195                 3        10.2 +j      2.5       10.5       0.9703
   TERMINAL TOTAL ............    10.2 +j      2.5       10.5       0.9703
L3141393                 3       -10.2 +j     -2.5       10.5       0.9700
   TERMINAL TOTAL ............   -10.2 +j     -2.5       10.5       0.9700

ELEMENT = "Line.LN6138603-1"
...