src/TestNetwork/8500Node(OpenDSS)/IEEE8500_VLN_Node.Txt

LINE-GROUND and LINE-LINE VOLTAGES BY BUS & NODE

Bus                  Node    VLN (kV)   Angle      pu     Base kV    Node-Node   VLL (kV)  Angle      pu

SOURCEBUS .......... 1       69.715 /_    0.0      1.05   115.000        1-2     120.75 /_   30.0      1.05
   -                 2       69.715 /_ -120.0      1.05   115.000        2-3     120.75 /_  -90.0      1.05
   -                 3       69.715 /_  120.0      1.05   115.000        3-1     120.75 /_  150.0      1.05
_HVMV_SUB_LSB ...... 1        7.571 /_  -34.3    1.0516    12.470        1-2     13.096 /_   -4.3    1.0502
   -                 2       7.5635 /_ -154.2    1.0506    12.470        2-3     13.102 /_ -124.0    1.0507
   -                 3       7.5803 /_   86.0    1.0529    12.470        3-1     13.145 /_  115.8    1.0541
HVMV_SUB_48332 ..... 1        7.571 /_  -34.3    1.0516    12.470        1-2     13.096 /_   -4.3    1.0502
   -                 2       7.5635 /_ -154.2    1.0506    12.470        2-3     13.102 /_ -124.0    1.0507
   -                 3       7.5803 /_   86.0    1.0529    12.470        3-1     13.145 /_  115.8    1.0541
M1009763 ........... 1       7.1999 /_  -44.8    1.0001    12.470        1-2     12.668 /_  -15.5    1.0159
   -                 2       7.2918 /_ -166.7    1.0128    12.470        2-3     12.323 /_ -133.0   0.98821
   -                 3        7.442 /_   79.8    1.0337    12.470        3-1     12.964 /_  107.0    1.0397
L2673322 ........... 2       7.2917 /_ -166.7    1.0128    12.470
M1069148 ........... 3       7.4912 /_   80.6    1.0405    12.470
L2673309 ........... 3       7.4909 /_   80.6    1.0405    12.470
M1069588 ........... 2       7.3634 /_ -164.9    1.0228    12.470
L2804270 ........... 2       7.3633 /_ -164.9    1.0227    12.470
M3036164 ........... 2       7.1625 /_ -166.5   0.99485    12.470
L2935553 ........... 2        7.161 /_ -166.5   0.99465    12.470
M1209749 ........... 2       7.4225 /_ -156.3     1.031    12.470
L2748840 ........... 2       7.4223 /_ -156.3    1.0309    12.470
M1108264 ........... 2       7.4558 /_ -160.3    1.0356    12.470
M1108263 ........... 2       7.4554 /_ -160.3    1.0355    12.470
L3085398 ........... 1       7.2458 /_  -44.8    1.0064    12.470        1-2     12.741 /_  -15.5    1.0217
   -                 2       7.3346 /_ -166.6    1.0188    12.470        2-3     12.375 /_ -133.1   0.99235
   -                 3       7.4529 /_   79.8    1.0352    12.470        3-1     13.013 /_  107.1    1.0435
M1026891 ........... 1       7.2425 /_  -44.8     1.006    12.470        1-2     12.734 /_  -15.5    1.0211
   -                 2       7.3284 /_ -166.6    1.0179    12.470        2-3     12.368 /_ -133.1   0.99182
   -                 3       7.4518 /_   79.8     1.035    12.470        3-1     13.009 /_  107.1    1.0432
L3216367 ........... 1       7.3136 /_  -44.3    1.0158    12.470        1-2     12.775 /_  -15.3    1.0244
   -                 2       7.2975 /_ -166.2    1.0136    12.470        2-3     12.343 /_ -133.1   0.98978
   -                 3       7.3929 /_   79.5    1.0269    12.470        3-1     12.971 /_  107.4    1.0401
M1069468 ........... 1        7.313 /_  -44.3    1.0158    12.470        1-2     12.773 /_  -15.3    1.0243
   -                 2       7.2954 /_ -166.2    1.0133    12.470        2-3      12.34 /_ -133.1   0.98958
   -                 3       7.3922 /_   79.5    1.0268    12.470        3-1     12.969 /_  107.4      1.04
M1142800 ........... 2       7.2614 /_ -158.8    1.0086    12.470
M1142799 ........... 2       7.2612 /_ -158.8    1.0086    12.470
M1047592 ........... 1       7.3622 /_  -44.4    1.0226    12.470        1-2     12.901 /_  -15.1    1.0346
   -                 2       7.4114 /_ -166.1    1.0294    12.470        2-3     12.496 /_ -132.9    1.0021
   -                 3       7.4845 /_   79.9    1.0396    12.470        3-1     13.126 /_  107.5    1.0526
P827512 ............ 3       7.4845 /_   79.9    1.0396    12.470
M1047339 ........... 1       7.2871 /_  -40.7    1.0122    12.470        1-2     12.646 /_  -11.1    1.0141
   -                 2       7.2605 /_ -161.5    1.0085    12.470        2-3     12.684 /_ -130.2    1.0172
   -                 3       7.4963 /_   80.0    1.0412    12.470        3-1     12.851 /_  109.2    1.0305
P895104 ............ 1       7.2871 /_  -40.7    1.0122    12.470
M1026915 ........... 1       7.2442 /_  -44.8    1.0062    12.470        1-2     12.741 /_  -15.5    1.0217
   -                 2       7.3368 /_ -166.6    1.0191    12.470        2-3     12.376 /_ -133.1   0.99245
   -                 3       7.4519 /_   79.8    1.0351    12.470        3-1     13.011 /_  107.1    1.0434
M1026920 ........... 1       7.2422 /_  -44.8    1.0059    12.470        1-2     12.738 /_  -15.5    1.0215
   -                 2       7.3358 /_ -166.6    1.0189    12.470        2-3     12.374 /_ -133.1   0.99231
   -                 3        7.451 /_   79.8    1.0349    12.470        3-1     13.008 /_  107.1    1.0432
N1138596 ........... 1       7.2947 /_  -44.2    1.0132    12.470
L3254207 ........... 1       7.2942 /_  -44.2    1.0132    12.470
M1069464 ........... 1       7.3119 /_  -44.3    1.0156    12.470        1-2      12.77 /_  -15.3     1.024
   -                 2       7.2915 /_ -166.2    1.0128    12.470        2-3     12.336 /_ -133.1   0.98923
   -                 3       7.3909 /_   79.5    1.0266    12.470        3-1     12.966 /_  107.4    1.0397
P873787 ............ 2       7.2915 /_ -166.2    1.0128    12.470
N1144665 ........... 1       7.3868 /_  -44.2     1.026    12.470        1-2      12.93 /_  -15.0    1.0369
   -                 2       7.4239 /_ -165.9    1.0312    12.470        2-3     12.512 /_ -132.8    1.0034
   -                 3       7.4768 /_   79.9    1.0385    12.470        3-1     13.133 /_  107.7    1.0532
M1047515 ........... 1       7.3816 /_  -44.2    1.0253    12.470        1-2     12.922 /_  -15.0    1.0363
   -                 2         7.42 /_ -165.9    1.0306    12.470        2-3     12.505 /_ -132.8    1.0028
   -                 3       7.4722 /_   79.9    1.0379    12.470        3-1     13.125 /_  107.7    1.0525
N1137002 ........... 1        7.353 /_  -44.2    1.0213    12.470
M1047707 ........... 1       7.3527 /_  -44.2    1.0213    12.470
L2729406 ........... 3       7.2863 /_   81.5    1.0121    12.470
L2897768 ........... 3       7.2858 /_   81.5     1.012    12.470
L3649301 ........... 1       7.3314 /_  -44.5    1.0183    12.470
L3649302 ........... 1       7.3311 /_  -44.5    1.0183    12.470
L2970842 ........... 2       7.4775 /_ -160.2    1.0386    12.470
M1089113 ........... 2       7.4762 /_ -160.2    1.0384    12.470
M1047312 ........... 1       7.2538 /_  -40.7    1.0075    12.470        1-2      12.59 /_  -11.2    1.0096
   -                 2       7.2255 /_ -161.5    1.0036    12.470        2-3     12.641 /_ -130.1    1.0137
   -                 3       7.4874 /_   80.0      1.04    12.470        3-1     12.815 /_  109.1    1.0277
P893163 ............ 1       7.2538 /_  -40.7    1.0075    12.470
L2822871 ........... 1       7.2775 /_  -44.7    1.0108    12.470        1-2     12.792 /_  -15.4    1.0258
   -                 2       7.3703 /_ -166.4    1.0237    12.470        2-3     12.421 /_ -133.0   0.99607
   -                 3       7.4618 /_   79.9    1.0364    12.470        3-1     13.049 /_  107.2    1.0464
M1026872 ........... 1       7.2749 /_  -44.7    1.0105    12.470        1-2     12.788 /_  -15.4    1.0255
   -                 2       7.3677 /_ -166.4    1.0234    12.470        2-3     12.417 /_ -133.1   0.99578
   -                 3        7.461 /_   79.8    1.0363    12.470        3-1     13.046 /_  107.2    1.0462
M1026312 ........... 2        7.077 /_ -161.8   0.98298    12.470
L2973163 ........... 2       7.0744 /_ -161.8   0.98261    12.470
L3728038 ........... 1       7.3203 /_  -44.3    1.0168    12.470
L3728039 ........... 1       7.3197 /_  -44.3    1.0167    12.470
M1069567 ........... 2       7.3758 /_ -164.9    1.0245    12.470
M1069582 ........... 2        7.367 /_ -164.9    1.0233    12.470
N1140830 ........... 1       7.1871 /_  -44.6   0.99827    12.470
L3216351 ........... 1        7.187 /_  -44.6   0.99826    12.470
L2952007 ........... 3        7.391 /_   84.9    1.0266    12.470
L2861158 ........... 3       7.3906 /_   84.9    1.0265    12.470
N1140827 ........... 1       7.1923 /_  -44.6   0.99899    12.470        1-2       12.7 /_  -14.8    1.0184
   -                 2       7.3801 /_ -165.8    1.0251    12.470        2-3     12.364 /_ -133.0    0.9915
   -                 3       7.3466 /_   80.0    1.0204    12.470        3-1      12.87 /_  107.4    1.0321
M1026726 ........... 1       7.1922 /_  -44.6   0.99898    12.470        1-2       12.7 /_  -14.8    1.0184
   -                 2         7.38 /_ -165.8    1.0251    12.470        2-3     12.364 /_ -133.0   0.99149
   -                 3       7.3465 /_   80.0    1.0204    12.470        3-1      12.87 /_  107.4    1.0321
L2730106 ........... 1       6.8889 /_  -40.9   0.95685    12.470        1-2     12.194 /_  -10.7   0.97786
   -                 2       7.1284 /_ -161.7   0.99012    12.470        2-3     12.421 /_ -129.2    0.9961
   -                 3       7.4739 /_   81.7    1.0381    12.470        3-1     12.599 /_  109.2    1.0104
N1142099 ........... 1       6.8864 /_  -40.9    0.9565    12.470        1-2     12.191 /_  -10.8   0.97763
   -                 2       7.1273 /_ -161.8   0.98997    12.470        2-3     12.419 /_ -129.2   0.99594
   -                 3       7.4739 /_   81.7    1.0381    12.470        3-1     12.598 /_  109.1    1.0103
M1026658 ........... 1       7.1854 /_  -44.6   0.99803    12.470        1-2     12.691 /_  -14.8    1.0177
   -                 2       7.3817 /_ -165.8    1.0253    12.470        2-3     12.356 /_ -133.0    0.9909
   -                 3       7.3326 /_   80.0    1.0185    12.470        3-1     12.853 /_  107.4    1.0307
L3172805 ........... 1       7.1852 /_  -44.6     0.998    12.470
P895112 ............ 1       7.1714 /_  -38.6   0.99609    12.470
L3048962 ........... 1       7.1713 /_  -38.6   0.99608    12.470
L2991914 ........... 1       7.3351 /_  -44.3    1.0188    12.470        1-2     12.856 /_  -14.9    1.0309
   -                 2       7.3938 /_ -165.9     1.027    12.470        2-3     12.452 /_ -132.9   0.99856
   -                 3       7.4348 /_   79.9    1.0327    12.470        3-1     13.053 /_  107.6    1.0468
M1047503 ........... 1       7.3315 /_  -44.3    1.0183    12.470        1-2     12.852 /_  -14.9    1.0306
   -                 2       7.3935 /_ -165.9    1.0269    12.470        2-3      12.45 /_ -132.9   0.99838
   -                 3       7.4325 /_   79.9    1.0324    12.470        3-1     13.049 /_  107.6    1.0464
M1047751 ........... 1       7.3101 /_  -44.0    1.0154    12.470
L2973154 ........... 1         7.31 /_  -44.0    1.0153    12.470
L3010565 ........... 3       7.4881 /_   80.6    1.0401    12.470
L2897775 ........... 3       7.4879 /_   80.6      1.04    12.470
M1125955 ........... 3        7.475 /_   82.3    1.0383    12.470
M1125957 ........... 3       7.4749 /_   82.3    1.0383    12.470
M1069640 ........... 2       7.3408 /_ -164.9    1.0196    12.470
L2804269 ........... 2       7.3401 /_ -164.9    1.0195    12.470
M1026702 ........... 1       7.2156 /_  -44.5    1.0022    12.470        1-2     12.727 /_  -14.8    1.0206
   -                 2       7.3837 /_ -165.8    1.0256    12.470        2-3     12.382 /_ -133.0   0.99294
   -                 3       7.3648 /_   80.0     1.023    12.470        3-1     12.904 /_  107.4    1.0348
N1139551 ........... 1       7.2046 /_  -44.5    1.0007    12.470        1-2     12.715 /_  -14.8    1.0196
   -                 2       7.3832 /_ -165.8    1.0255    12.470        2-3     12.376 /_ -133.0   0.99246
   -                 3       7.3585 /_   80.0    1.0221    12.470        3-1      12.89 /_  107.4    1.0337
N1136355 ........... 2       7.4148 /_ -164.8    1.0299    12.470
L2783231 ........... 2       7.4077 /_ -164.8    1.0289    12.470
L2748143 ........... 1       7.2637 /_  -42.9    1.0089    12.470
L3251854 ........... 1       7.2636 /_  -42.9    1.0089    12.470
M1069610 ........... 2       7.3513 /_ -164.9    1.0211    12.470
M1069600 ........... 2       7.3512 /_ -164.9    1.0211    12.470
M1069424 ........... 1       7.3038 /_  -44.2    1.0145    12.470        1-2     12.745 /_  -15.4    1.0221
   -                 2        7.262 /_ -166.3    1.0087    12.470        2-3     12.303 /_ -133.2   0.98659
   -                 3       7.3813 /_   79.3    1.0252    12.470        3-1     12.942 /_  107.4    1.0378
L2935549 ........... 1       7.3027 /_  -44.2    1.0143    12.470        1-2     12.742 /_  -15.4    1.0218
   -                 2        7.258 /_ -166.4    1.0081    12.470        2-3     12.298 /_ -133.2   0.98623
   -                 3       7.3802 /_   79.3    1.0251    12.470        3-1     12.939 /_  107.4    1.0376
P895089 ............ 3       7.5251 /_   80.8    1.0452    12.470
L3235242 ........... 3       7.5249 /_   80.8    1.0452    12.470
M1026795 ........... 1       7.2967 /_  -44.4    1.0135    12.470        1-2     12.814 /_  -14.9    1.0276
   -                 2        7.391 /_ -165.8    1.0266    12.470        2-3     12.429 /_ -132.9   0.99672
   -                 3        7.411 /_   79.9    1.0294    12.470        3-1     13.004 /_  107.6    1.0429
N1140522 ........... 3        7.411 /_   79.9    1.0294    12.470
L3030199 ........... 1       7.2152 /_  -38.6    1.0022    12.470        1-2     12.552 /_   -8.6    1.0066
   -                 2       7.2628 /_ -158.8    1.0088    12.470        2-3     12.679 /_ -127.8    1.0168
   -                 3       7.4603 /_   82.3    1.0362    12.470        3-1     12.766 /_  111.3    1.0238
M1125934 ........... 1       7.2152 /_  -38.6    1.0022    12.470        1-2     12.552 /_   -8.6    1.0065
   -                 2       7.2619 /_ -158.8    1.0087    12.470        2-3     12.678 /_ -127.8    1.0167
   -                 3       7.4597 /_   82.3    1.0361    12.470        3-1     12.765 /_  111.3    1.0237
M1069189 ........... 1         7.44 /_  -40.1    1.0334    12.470        1-2     12.901 /_  -10.3    1.0346
   -                 2       7.4286 /_ -160.5    1.0318    12.470        2-3     12.866 /_ -129.8    1.0318
   -                 3       7.5063 /_   80.6    1.0426    12.470        3-1     12.986 /_  110.1    1.0414
L2860487 ........... 3       7.5062 /_   80.6    1.0426    12.470
221-312488 ......... 1       6.9233 /_  -40.3   0.96163    12.470        1-2     12.219 /_  -10.3    0.9799
   -                 2       7.1258 /_ -161.2   0.98975    12.470        2-3     12.435 /_ -128.8    0.9972
   -                 3       7.4656 /_   81.9     1.037    12.470        3-1     12.603 /_  109.6    1.0107
M1089183 ........... 1       6.9233 /_  -40.3   0.96163    12.470        1-2     12.219 /_  -10.3    0.9799
   -                 2       7.1257 /_ -161.2   0.98975    12.470        2-3     12.435 /_ -128.8   0.99719
   -                 3       7.4656 /_   81.9     1.037    12.470        3-1     12.603 /_  109.6    1.0107
M1108464 ........... 2       7.1235 /_ -161.2   0.98944    12.470
L3102286 ........... 2       7.1231 /_ -161.2   0.98938    12.470
F739845 ............ 1       7.2371 /_  -40.7    1.0052    12.470        1-2     12.556 /_  -11.2    1.0069
   -                 2       7.1995 /_ -161.6         1    12.470        2-3     12.612 /_ -130.1    1.0114
   -                 3       7.4821 /_   80.0    1.0392    12.470        3-1     12.795 /_  109.1    1.0261
293471 ............. 1       7.2371 /_  -40.7    1.0052    12.470        1-2     12.556 /_  -11.2    1.0069
   -                 2       7.1995 /_ -161.6   0.99999    12.470        2-3     12.612 /_ -130.1    1.0114
   -                 3        7.482 /_   80.0    1.0392    12.470        3-1     12.795 /_  109.1    1.0261
P827499 ............ 1       7.3015 /_  -44.2    1.0142    12.470
N1139254 ........... 1       7.3015 /_  -44.2    1.0142    12.470
M1026657 ........... 1        7.182 /_  -44.6   0.99756    12.470
M1026656 ........... 1       7.1817 /_  -44.6   0.99752    12.470
M1108299 ........... 2       7.2325 /_ -159.2    1.0046    12.470
M1108300 ........... 2       7.2324 /_ -159.2    1.0046    12.470
L3198355 ........... 2       7.2321 /_ -159.2    1.0045    12.470
L2805037 ........... 2       7.2321 /_ -159.2    1.0045    12.470
N1137994 ........... 3       7.3974 /_   79.6    1.0275    12.470
M1069484 ........... 3        7.396 /_   79.5    1.0273    12.470
L2860504 ........... 1       7.1881 /_  -44.6   0.99841    12.470
L2860493 ........... 1       7.1874 /_  -44.6   0.99831    12.470
M1026783 ........... 1        7.286 /_  -44.4     1.012    12.470        1-2     12.802 /_  -14.9    1.0267
   -                 2       7.3902 /_ -165.8    1.0265    12.470        2-3     12.423 /_ -132.9   0.99624
   -                 3       7.4051 /_   79.9    1.0286    12.470        3-1     12.991 /_  107.5    1.0418
M1026780 ........... 1       7.2843 /_  -44.4    1.0118    12.470        1-2     12.801 /_  -14.9    1.0265
   -                 2         7.39 /_ -165.8    1.0265    12.470        2-3     12.422 /_ -132.9   0.99616
   -                 3       7.4042 /_   79.9    1.0284    12.470        3-1     12.989 /_  107.5    1.0416
P895111 ............ 3       7.4777 /_   82.5    1.0386    12.470
L2895496 ........... 3       7.4773 /_   82.5    1.0386    12.470
N1140819 ........... 1       7.1966 /_  -44.5   0.99958    12.470        1-2     12.705 /_  -14.8    1.0188
   -                 2       7.3811 /_ -165.8    1.0252    12.470        2-3     12.368 /_ -133.0   0.99184
   -                 3       7.3509 /_   80.0     1.021    12.470        3-1     12.877 /_  107.4    1.0327
M1026700 ........... 1       7.1954 /_  -44.5   0.99942    12.470        1-2     12.704 /_  -14.8    1.0187
   -                 2       7.3808 /_ -165.8    1.0252    12.470        2-3     12.367 /_ -133.0   0.99174
   -                 3       7.3497 /_   80.0    1.0209    12.470        3-1     12.875 /_  107.4    1.0325
M1089173 ........... 3        7.289 /_   81.5    1.0124    12.470
L2935551 ........... 3       7.2881 /_   81.5    1.0123    12.470
M1026344 ........... 1       7.1922 /_  -40.7   0.99898    12.470
M1026364 ........... 1       7.1919 /_  -40.7   0.99894    12.470
L2879070 ........... 1       7.3505 /_  -44.5     1.021    12.470        1-2     12.887 /_  -15.2    1.0334
   -                 2       7.4075 /_ -166.1    1.0289    12.470        2-3     12.487 /_ -132.9    1.0014
   -                 3        7.481 /_   79.9    1.0391    12.470        3-1     13.116 /_  107.4    1.0518
L3216345 ........... 1       7.3426 /_  -44.5    1.0199    12.470        1-2     12.877 /_  -15.2    1.0326
   -                 2        7.405 /_ -166.1    1.0285    12.470        2-3     12.481 /_ -133.0    1.0009
   -                 3       7.4791 /_   79.9    1.0388    12.470        3-1     13.109 /_  107.4    1.0512
M1069428 ........... 1       7.3049 /_  -44.3    1.0146    12.470        1-2     12.748 /_  -15.4    1.0223
   -                 2       7.2654 /_ -166.3    1.0091    12.470        2-3     12.307 /_ -133.2   0.98689
   -                 3       7.3823 /_   79.4    1.0254    12.470        3-1     12.945 /_  107.4    1.0381
N1139257 ........... 2       7.2654 /_ -166.3    1.0091    12.470
L2991919 ........... 1       7.1882 /_  -40.7   0.99843    12.470
M1026361 ........... 1       7.1858 /_  -40.7   0.99808    12.470
N1147857 ........... 1       7.1999 /_  -44.8         1    12.470
M1009742 ........... 1       7.1982 /_  -44.8   0.99981    12.470
Q14412 ............. 1       7.2781 /_  -40.7    1.0109    12.470        1-2     12.631 /_  -11.2    1.0129
   -                 2       7.2513 /_ -161.5    1.0072    12.470        2-3     12.673 /_ -130.2    1.0163
   -                 3       7.4941 /_   80.0    1.0409    12.470        3-1     12.841 /_  109.2    1.0298
M1047325 ........... 1       7.2756 /_  -40.7    1.0106    12.470        1-2     12.626 /_  -11.2    1.0126
   -                 2       7.2487 /_ -161.5    1.0068    12.470        2-3      12.67 /_ -130.2     1.016
   -                 3       7.4934 /_   80.0    1.0408    12.470        3-1     12.838 /_  109.2    1.0295
N1139263 ........... 1       7.3129 /_  -44.3    1.0157    12.470
L3048227 ........... 1       7.3128 /_  -44.3    1.0157    12.470
P827506 ............ 1       7.3129 /_  -44.3    1.0157    12.470
M1069469 ........... 1       7.3129 /_  -44.3    1.0157    12.470
M1027019 ........... 2       7.3003 /_ -166.6     1.014    12.470
L2785522 ........... 2       7.3002 /_ -166.6     1.014    12.470
L3216338 ........... 2       7.2422 /_ -166.8    1.0059    12.470
L2973146 ........... 2       7.2421 /_ -166.8    1.0059    12.470
M3037452 ........... 1       7.1785 /_  -40.7   0.99708    12.470
L2973164 ........... 1       7.1784 /_  -40.7   0.99707    12.470
L3120376 ........... 1       7.2889 /_  -44.7    1.0124    12.470
M1026925 ........... 1       7.2872 /_  -44.7    1.0122    12.470
M1047612 ........... 3       7.4922 /_   79.9    1.0406    12.470
P828360 ............ 3       7.4921 /_   79.9    1.0406    12.470
M1089195 ........... 3       7.5246 /_   80.8    1.0451    12.470
L3141393 ........... 3       7.5244 /_   80.8    1.0451    12.470
M1026946 ........... 2       7.3162 /_ -166.6    1.0162    12.470
M1026940 ........... 2       7.3157 /_ -166.6    1.0161    12.470
M1047471 ........... 2       7.1245 /_ -166.7   0.98957    12.470
L3216349 ........... 2       7.1245 /_ -166.7   0.98957    12.470
M1047401 ........... 1       7.1329 /_  -44.7   0.99074    12.470
L2748132 ........... 1       7.1328 /_  -44.7   0.99073    12.470
L3122820 ........... 1       7.1617 /_  -44.6   0.99474    12.470
L3141398 ........... 1       7.1616 /_  -44.6   0.99473    12.470
M1108360 ........... 3       7.3605 /_   81.6    1.0224    12.470
L3048968 ........... 3       7.3603 /_   81.6    1.0223    12.470
L2801950 ........... 3       7.4692 /_   80.5    1.0375    12.470
M1069224 ........... 3       7.4686 /_   80.5    1.0374    12.470
L2766746 ........... 3       7.3768 /_   79.7    1.0246    12.470
M1027073 ........... 3       7.3747 /_   79.7    1.0243    12.470
M1142873 ........... 3       7.4771 /_   82.5    1.0385    12.470
M1069181 ........... 1       7.4003 /_  -40.2    1.0279    12.470
L2973151 ........... 1       7.3987 /_  -40.2    1.0277    12.470
L3179682 ........... 3       7.4403 /_   81.8    1.0334    12.470
L2786274 ........... 3       7.4403 /_   81.8    1.0334    12.470
L3066816 ........... 1       7.1861 /_  -44.6   0.99813    12.470
M1026667 ........... 1       7.1857 /_  -44.6   0.99808    12.470
M1108529 ........... 1       7.4492 /_  -41.5    1.0347    12.470        1-2     13.042 /_  -11.9    1.0459
   -                 2       7.5316 /_ -162.6    1.0461    12.470        2-3     12.765 /_ -130.6    1.0237
   -                 3         7.52 /_   81.4    1.0445    12.470        3-1     13.151 /_  109.8    1.0546
M1108532 ........... 1        7.447 /_  -41.6    1.0344    12.470        1-2      13.04 /_  -11.9    1.0457
   -                 2       7.5303 /_ -162.6    1.0459    12.470        2-3     12.763 /_ -130.6    1.0235
   -                 3       7.5201 /_   81.4    1.0445    12.470        3-1      13.15 /_  109.8    1.0545
L2766723 ........... 1       7.1872 /_  -44.6   0.99828    12.470
L3122822 ........... 1       7.1871 /_  -44.6   0.99826    12.470
L2673312 ........... 1       7.1882 /_  -44.8   0.99843    12.470
L3235247 ........... 1       7.1881 /_  -44.8   0.99841    12.470
M1166391 ........... 3       7.4054 /_   84.9    1.0286    12.470
L3254873 ........... 3       7.4015 /_   84.9     1.028    12.470
L2861157 ........... 3       7.4436 /_   85.0    1.0339    12.470
P901951 ............ 3         7.44 /_   85.0    1.0334    12.470
M1047346 ........... 1        7.301 /_  -40.7    1.0141    12.470        1-2     12.667 /_  -11.1    1.0158
   -                 2       7.2732 /_ -161.4    1.0102    12.470        2-3       12.7 /_ -130.2    1.0184
   -                 3       7.4995 /_   80.0    1.0417    12.470        3-1     12.865 /_  109.2    1.0317
M1047345 ........... 1       7.2973 /_  -40.7    1.0136    12.470        1-2     12.662 /_  -11.1    1.0154
   -                 2         7.27 /_ -161.4    1.0098    12.470        2-3     12.696 /_ -130.2    1.0181
   -                 3       7.4987 /_   80.0    1.0415    12.470        3-1     12.861 /_  109.2    1.0314
L2989596 ........... 2       7.3847 /_ -164.9    1.0257    12.470
L2822873 ........... 2       7.3846 /_ -164.9    1.0257    12.470
M1108328 ........... 3       7.4173 /_   81.7    1.0302    12.470
L2875754 ........... 3       7.4172 /_   81.7    1.0302    12.470
L2786204 ........... 3       7.5042 /_   85.2    1.0423    12.470
M1209819 ........... 3          7.5 /_   85.1    1.0417    12.470
P901972 ............ 1       7.1978 /_  -44.8   0.99976    12.470
M1009726 ........... 1       7.1951 /_  -44.8   0.99938    12.470
M1047702 ........... 1       7.3531 /_  -44.2    1.0213    12.470
N1137001 ........... 1       7.3531 /_  -44.2    1.0213    12.470
L2767340 ........... 1       6.9797 /_  -40.1   0.96946    12.470        1-2     12.299 /_  -10.0   0.98625
   -                 2       7.1686 /_ -160.8    0.9957    12.470        2-3     12.497 /_ -128.7    1.0022
   -                 3       7.4745 /_   82.0    1.0382    12.470        3-1      12.65 /_  109.9    1.0145
M3037449 ........... 1       6.9797 /_  -40.1   0.96946    12.470        1-2     12.299 /_  -10.0   0.98625
   -                 2       7.1686 /_ -160.8    0.9957    12.470        2-3     12.497 /_ -128.7    1.0022
   -                 3       7.4745 /_   82.0    1.0382    12.470        3-1      12.65 /_  109.9    1.0145
M1047457 ........... 2       7.1322 /_ -166.7   0.99064    12.470
L2710546 ........... 2       7.1313 /_ -166.7   0.99052    12.470
L2674027 ........... 1       6.8275 /_  -41.4   0.94832    12.470        1-2     12.122 /_  -11.3    0.9721
   -                 2       7.0985 /_ -162.4   0.98596    12.470        2-3     12.368 /_ -129.5   0.99179
   -                 3       7.4737 /_   81.5    1.0381    12.470        3-1     12.564 /_  108.6    1.0075
L2692633 ........... 1       6.8206 /_  -41.4   0.94737    12.470        1-2     12.114 /_  -11.3   0.97145
   -                 2       7.0948 /_ -162.5   0.98545    12.470        2-3     12.361 /_ -129.6   0.99129
   -                 3       7.4737 /_   81.4    1.0381    12.470        3-1      12.56 /_  108.6    1.0072
N1142108 ........... 1       7.2168 /_  -38.8    1.0024    12.470
L2674051 ........... 1       7.2167 /_  -38.8    1.0024    12.470
M1069135 ........... 1       7.3251 /_  -40.7    1.0174    12.470        1-2     12.704 /_  -11.1    1.0188
   -                 2       7.2938 /_ -161.4    1.0131    12.470        2-3     12.726 /_ -130.2    1.0205
   -                 3       7.5059 /_   80.0    1.0425    12.470        3-1      12.89 /_  109.3    1.0337
R18242 ............. 1       7.3202 /_  -40.7    1.0168    12.470        1-2     12.697 /_  -11.1    1.0182
   -                 2       7.2899 /_ -161.4    1.0125    12.470        2-3     12.721 /_ -130.2    1.0202
   -                 3       7.5054 /_   80.0    1.0425    12.470        3-1     12.885 /_  109.2    1.0333
M1047534 ........... 1       7.4685 /_  -44.0    1.0374    12.470        1-2     13.055 /_  -14.8    1.0469
   -                 2       7.4848 /_ -165.7    1.0396    12.470        2-3     12.616 /_ -132.7    1.0117
   -                 3       7.5316 /_   80.0    1.0461    12.470        3-1     13.248 /_  107.9    1.0624
N1136663 ........... 1       7.4473 /_  -44.1    1.0344    12.470        1-2     13.023 /_  -14.9    1.0444
   -                 2       7.4688 /_ -165.7    1.0374    12.470        2-3      12.59 /_ -132.7    1.0096
   -                 3       7.5204 /_   80.0    1.0446    12.470        3-1     13.221 /_  107.8    1.0603
M1108508 ........... 3       7.5212 /_   81.1    1.0447    12.470
L3097861 ........... 3       7.5211 /_   81.1    1.0447    12.470
M1069560 ........... 2       7.3808 /_ -164.9    1.0252    12.470
L2973153 ........... 1       7.3638 /_  -44.2    1.0228    12.470        1-2     12.872 /_  -15.2    1.0322
   -                 2       7.3618 /_ -166.1    1.0225    12.470        2-3      12.46 /_ -132.8   0.99923
   -                 3       7.4942 /_   79.9    1.0409    12.470        3-1     13.125 /_  107.6    1.0525
N1136998 ........... 1       7.3632 /_  -44.2    1.0227    12.470        1-2     12.871 /_  -15.2    1.0321
   -                 2       7.3605 /_ -166.1    1.0224    12.470        2-3     12.459 /_ -132.8   0.99914
   -                 3       7.4944 /_   79.9     1.041    12.470        3-1     13.125 /_  107.6    1.0525
L2898515 ........... 3       7.4997 /_   83.8    1.0417    12.470
M1166387 ........... 3       7.4995 /_   83.8    1.0417    12.470
M1047442 ........... 2       7.1615 /_ -166.6   0.99472    12.470
L3235250 ........... 2       7.1615 /_ -166.6   0.99471    12.470
M1142871 ........... 1       7.1431 /_  -38.8   0.99216    12.470        1-2     12.491 /_   -8.8    1.0017
   -                 2       7.2533 /_ -159.2    1.0075    12.470        2-3     12.642 /_ -127.8    1.0138
   -                 3       7.4779 /_   82.6    1.0387    12.470        3-1     12.752 /_  111.1    1.0226
M1142874 ........... 1       7.1381 /_  -38.9   0.99147    12.470        1-2     12.485 /_   -8.8    1.0012
   -                 2       7.2505 /_ -159.3    1.0071    12.470        2-3     12.638 /_ -127.8    1.0135
...